REMARK  7 active torsions:
REMARK  status: ('A' for Active; 'I' for Inactive)
REMARK    1  A    between atoms: C1_1  and  C7_9 
REMARK    2  A    between atoms: C3_4  and  C21_45 
REMARK    3  A    between atoms: C5_7  and  C8_15 
REMARK    4  A    between atoms: C6_8  and  N1_19 
REMARK    5  A    between atoms: N1_19  and  C11_25 
REMARK    6  A    between atoms: C12_28  and  N4_29 
REMARK    7  A    between atoms: N4_29  and  C16_36 
ROOT
HETATM    1  C13 T27 A 557      49.799 -31.025  35.312  1.00 25.09     0.044 A 
HETATM    2  C14 T27 A 557      50.269 -31.013  33.977  1.00 23.67    -0.061 A 
ATOM      3  H14 T27 A 557      50.154 -31.913  33.349  1.00  0.00     0.085 H 
HETATM    4  C15 T27 A 557      50.883 -29.861  33.441  1.00 27.38    -0.055 A 
ATOM      5  H15 T27 A 557      51.243 -29.877  32.399  1.00  0.00     0.087 H 
HETATM    6  C16 T27 A 557      51.048 -28.673  34.221  1.00 27.55     0.049 A 
HETATM    7  C17 T27 A 557      50.561 -28.702  35.570  1.00 21.87    -0.055 A 
ATOM      8  H17 T27 A 557      50.671 -27.804  36.201  1.00  0.00     0.087 H 
HETATM    9  C18 T27 A 557      49.940 -29.861  36.113  1.00 27.25    -0.061 A 
ATOM     10  H18 T27 A 557      49.570 -29.855  37.152  1.00  0.00     0.085 H 
HETATM   11  N5  T27 A 557      48.698 -33.181  36.272  1.00 26.72    -0.191 NA
HETATM   12  C19 T27 A 557      49.186 -32.213  35.845  1.00 29.50     0.099 C 
ENDROOT
BRANCH   6  13
HETATM   13  N4  T27 A 557      51.661 -27.501  33.717  1.00 25.92    -0.192 N 
ATOM     14  H4  T27 A 557      51.728 -27.498  32.699  1.00  0.00     0.184 HD
BRANCH  13  15
HETATM   15  C12 T27 A 557      52.195 -26.349  34.296  1.00 26.30     0.684 A 
HETATM   16  N3  T27 A 557      51.982 -26.078  35.581  1.00 22.76    -0.176 N 
HETATM   17  C11 T27 A 557      52.499 -24.952  36.144  1.00 25.85     0.122 A 
ATOM     18  H3  T27 A 557      51.427 -26.719  36.148  1.00  0.00     0.186 HD
HETATM   19  C10 T27 A 557      53.261 -24.038  35.410  1.00 25.43    -0.025 A 
HETATM   20  C9  T27 A 557      53.448 -24.380  34.061  1.00 23.08    -0.002 A 
ATOM     21  H10 T27 A 557      53.682 -23.121  35.855  1.00  0.00     0.091 H 
HETATM   22  N2  T27 A 557      52.922 -25.523  33.487  1.00 25.29    -0.202 N 
ATOM     23  H9  T27 A 557      54.045 -23.703  33.427  1.00  0.00     0.112 H 
ATOM     24  H2  T27 A 557      53.071 -25.740  32.501  1.00  0.00     0.183 HD
BRANCH  17  25
HETATM   25  N1  T27 A 557      52.219 -24.743  37.509  1.00 19.93    -0.341 N 
ATOM     26  H1  T27 A 557      52.727 -24.015  38.011  1.00  0.00     0.167 HD
BRANCH  25  27
HETATM   27  C6  T27 A 557      51.256 -25.511  38.206  1.00 22.06     0.045 A 
HETATM   28  C5  T27 A 557      51.633 -26.804  38.759  1.00 27.85    -0.034 A 
HETATM   29  C4  T27 A 557      50.673 -27.581  39.439  1.00 26.06    -0.065 A 
HETATM   30  C3  T27 A 557      49.357 -27.139  39.629  1.00 25.95    -0.035 A 
ATOM     31  H4  T27 A 557      50.967 -28.568  39.834  1.00  0.00     0.085 H 
HETATM   32  C2  T27 A 557      48.975 -25.867  39.102  1.00 24.94    -0.065 A 
HETATM   33  C1  T27 A 557      49.920 -25.039  38.401  1.00 29.53    -0.034 A 
ATOM     34  H2  T27 A 557      47.938 -25.514  39.235  1.00  0.00     0.085 H 
BRANCH  28  35
HETATM   35  C8  T27 A 557      53.020 -27.393  38.614  1.00 23.50    -0.049 C 
ATOM     36  H83 T27 A 557      53.412 -27.671  39.620  1.00  0.00     0.033 H 
ATOM     37  H82 T27 A 557      52.949 -28.397  38.135  1.00  0.00     0.033 H 
ATOM     38  H81 T27 A 557      53.779 -26.779  38.076  1.00  0.00     0.033 H 
ENDBRANCH  28  35
BRANCH  30  39
HETATM   39  C21 T27 A 557      48.385 -27.992  40.345  1.00 29.08    -0.063 C 
HETATM   40  C20 T27 A 557      47.592 -27.591  41.333  1.00 35.39    -0.006 C 
HETATM   41  C22 T27 A 557      46.698 -28.486  41.969  1.00 40.67     0.087 C 
ATOM     42  H20 T27 A 557      47.631 -26.540  41.664  1.00  0.00     0.100 H 
HETATM   43  N6  T27 A 557      45.975 -29.216  42.500  1.00 44.98    -0.192 NA
ATOM     44  H21 T27 A 557      48.312 -29.048  40.034  1.00  0.00     0.085 H 
ENDBRANCH  30  39
BRANCH  33  45
HETATM   45  C7  T27 A 557      49.438 -23.701  37.861  1.00 30.29    -0.049 C 
ATOM     46  H73 T27 A 557      48.548 -23.869  37.211  1.00  0.00     0.033 H 
ATOM     47  H72 T27 A 557      48.985 -23.113  38.693  1.00  0.00     0.033 H 
ATOM     48  H71 T27 A 557      50.170 -23.059  37.318  1.00  0.00     0.033 H 
ENDBRANCH  33  45
ENDBRANCH  25  27
ENDBRANCH  17  25
ENDBRANCH  13  15
ENDBRANCH   6  13
TORSDOF 7
