REMARK  6 active torsions:
REMARK  status: ('A' for Active; 'I' for Inactive)
REMARK    1  A    between atoms: C4_4  and  O4_28 
REMARK    2  A    between atoms: C5_5  and  C7_7 
REMARK    3  A    between atoms: C8_9  and  C16_21 
REMARK    4  A    between atoms: N2_10  and  C9_12 
REMARK    5  A    between atoms: C12_15  and  C15_18 
REMARK    6  A    between atoms: C21_26  and  O3_27 
ROOT
ATOM      1  C7  <0> d           1.212  -2.172   0.094  0.00  0.00     0.184 A 
ATOM      2  N1  <0> d           0.164  -3.004   0.115  0.00  0.00    -0.206 NA
ATOM      3  C8  <0> d           0.575  -4.243  -0.058  0.00  0.00     0.166 A 
ATOM      4  N2  <0> d           1.931  -4.217  -0.196  0.00  0.00    -0.213 N 
ATOM      5  N3  <0> d           2.312  -2.869  -0.100  0.00  0.00    -0.144 NA
ENDROOT
BRANCH   4   6
ATOM      6  C9  <0> d           2.772  -5.312  -0.398  0.00  0.00     0.060 A 
ATOM      7  C14 <0> d           3.977  -5.399   0.294  0.00  0.00    -0.054 A 
ATOM      8  C13 <0> d           4.807  -6.480   0.101  0.00  0.00    -0.064 A 
ATOM      9  H8  <0> d           4.259  -4.619   0.985  0.00  0.00     0.087 H 
ATOM     10  C12 <0> d           4.443  -7.487  -0.799  0.00  0.00     0.041 A 
ATOM     11  H7  <0> d           5.740  -6.548   0.641  0.00  0.00     0.085 H 
ATOM     12  C11 <0> d           3.234  -7.394  -1.496  0.00  0.00    -0.064 A 
ATOM     13  C10 <0> d           2.407  -6.312  -1.294  0.00  0.00    -0.054 A 
ATOM     14  H6  <0> d           2.950  -8.169  -2.192  0.00  0.00     0.085 H 
ATOM     15  H5  <0> d           1.473  -6.240  -1.831  0.00  0.00     0.087 H 
BRANCH  10  16
ATOM     16  C15 <0> d           5.331  -8.643  -1.013  0.00  0.00     0.209 C 
ATOM     17  O1  <0> d           5.012  -9.523  -1.800  0.00  0.00    -0.644 OA
ATOM     18  O2  <0> d           6.388  -8.722  -0.402  0.00  0.00    -0.644 OA
ENDBRANCH  10  16
ENDBRANCH   4   6
BRANCH   3  19
ATOM     19  C16 <0> d          -0.281  -5.447  -0.094  0.00  0.00     0.045 A 
ATOM     20  C21 <0> d          -1.434  -5.466  -0.889  0.00  0.00     0.079 A 
ATOM     21  C20 <0> d          -2.227  -6.603  -0.921  0.00  0.00    -0.050 A 
ATOM     22  C19 <0> d          -1.887  -7.706  -0.163  0.00  0.00    -0.080 A 
ATOM     23  H12 <0> d          -3.114  -6.624  -1.537  0.00  0.00     0.087 H 
ATOM     24  C18 <0> d          -0.751  -7.688   0.629  0.00  0.00    -0.082 A 
ATOM     25  H11 <0> d          -2.510  -8.588  -0.188  0.00  0.00     0.083 H 
ATOM     26  C17 <0> d           0.051  -6.567   0.667  0.00  0.00    -0.067 A 
ATOM     27  H10 <0> d          -0.493  -8.555   1.219  0.00  0.00     0.083 H 
ATOM     28  H9  <0> d           0.937  -6.558   1.286  0.00  0.00     0.085 H 
BRANCH  20  29
ATOM     29  O3  <0> d          -1.770  -4.379  -1.629  0.00  0.00    -0.360 OA
ATOM     30  H13 <0> d          -1.395  -4.379  -2.521  0.00  0.00     0.217 HD
ENDBRANCH  20  29
ENDBRANCH   3  19
BRANCH   1  31
ATOM     31  C5  <0> d           1.145  -0.700   0.255  0.00  0.00     0.047 A 
ATOM     32  C4  <0> d           2.314   0.066   0.208  0.00  0.00     0.079 A 
ATOM     33  C3  <0> d           2.242   1.442   0.360  0.00  0.00    -0.050 A 
ATOM     34  C2  <0> d           1.018   2.053   0.556  0.00  0.00    -0.080 A 
ATOM     35  H3  <0> d           3.143   2.036   0.324  0.00  0.00     0.087 H 
ATOM     36  C1  <0> d          -0.140   1.298   0.604  0.00  0.00    -0.082 A 
ATOM     37  H2  <0> d           0.966   3.126   0.674  0.00  0.00     0.083 H 
ATOM     38  C6  <0> d          -0.083  -0.073   0.454  0.00  0.00    -0.067 A 
ATOM     39  H1  <0> d          -1.092   1.783   0.762  0.00  0.00     0.083 H 
ATOM     40  H4  <0> d          -0.989  -0.659   0.492  0.00  0.00     0.085 H 
BRANCH  32  41
ATOM     41  O4  <0> d           3.516  -0.536   0.014  0.00  0.00    -0.360 OA
ATOM     42  H14 <0> d           3.959  -0.802   0.832  0.00  0.00     0.217 HD
ENDBRANCH  32  41
ENDBRANCH   1  31
TORSDOF 6
