REMARK  7 active torsions:
REMARK  status: ('A' for Active; 'I' for Inactive)
REMARK    1  A    between atoms: C3_3  and  O6_22 
REMARK    2  A    between atoms: C4_4  and  C14_19 
REMARK    3  A    between atoms: C6_6  and  N1_7 
REMARK    4  A    between atoms: N1_7  and  N2_8 
REMARK    5  A    between atoms: N2_8  and  C7_9 
REMARK    6  A    between atoms: C10_12  and  O3_18 
REMARK    7  A    between atoms: C11_13  and  C13_15 
ROOT
ATOM      1  N1  <0> d          -1.172  -0.703   0.010  0.00  0.00    -0.150 NA
ENDROOT
BRANCH   1   2
ATOM      2  C6  <0> d           0.002  -0.004   0.002  0.00  0.00     0.080 A 
ATOM      3  C1  <0> d          -0.017   1.397   0.010  0.00  0.00    -0.051 A 
ATOM      4  C2  <0> d           1.162   2.107   0.002  0.00  0.00    -0.048 A 
ATOM      5  H1  <0> d          -0.961   1.922   0.026  0.00  0.00     0.087 H 
ATOM      6  C3  <0> d           2.381   1.440  -0.013  0.00  0.00     0.082 A 
ATOM      7  H2  <0> d           1.140   3.186   0.008  0.00  0.00     0.087 H 
ATOM      8  C4  <0> d           2.413   0.035  -0.021  0.00  0.00     0.076 A 
ATOM      9  C5  <0> d           1.218  -0.684  -0.013  0.00  0.00    -0.034 A 
ATOM     10  H3  <0> d           1.236  -1.764  -0.019  0.00  0.00     0.088 H 
BRANCH   6  11
ATOM     11  O6  <0> d           3.539   2.144  -0.021  0.00  0.00    -0.360 OA
ATOM     12  H8  <0> d           3.883   2.345   0.861  0.00  0.00     0.217 HD
ENDBRANCH   6  11
BRANCH   8  13
ATOM     13  C14 <0> d           3.703  -0.674  -0.037  0.00  0.00     0.212 C 
ATOM     14  O4  <0> d           3.729  -1.897  -0.044  0.00  0.00    -0.644 OA
ATOM     15  O5  <0> d           4.750  -0.040  -0.044  0.00  0.00    -0.644 OA
ENDBRANCH   8  13
ENDBRANCH   1   2
BRANCH   1  16
ATOM     16  N2  <0> d          -2.297  -0.074   0.024  0.00  0.00    -0.150 NA
BRANCH  16  17
ATOM     17  C7  <0> d          -3.471  -0.773   0.032  0.00  0.00     0.080 A 
ATOM     18  C12 <0> d          -4.687  -0.093   0.048  0.00  0.00    -0.034 A 
ATOM     19  C11 <0> d          -5.882  -0.812   0.050  0.00  0.00     0.076 A 
ATOM     20  H6  <0> d          -4.705   0.987   0.054  0.00  0.00     0.088 H 
ATOM     21  C10 <0> d          -5.850  -2.217   0.048  0.00  0.00     0.082 A 
ATOM     22  C9  <0> d          -4.631  -2.884   0.038  0.00  0.00    -0.048 A 
ATOM     23  C8  <0> d          -3.452  -2.174   0.030  0.00  0.00    -0.051 A 
ATOM     24  H5  <0> d          -4.609  -3.963   0.036  0.00  0.00     0.087 H 
ATOM     25  H4  <0> d          -2.508  -2.699   0.022  0.00  0.00     0.087 H 
BRANCH  19  26
ATOM     26  C13 <0> d          -7.172  -0.103   0.060  0.00  0.00     0.212 C 
ATOM     27  O1  <0> d          -7.198   1.120   0.062  0.00  0.00    -0.644 OA
ATOM     28  O2  <0> d          -8.219  -0.737   0.067  0.00  0.00    -0.644 OA
ENDBRANCH  19  26
BRANCH  21  29
ATOM     29  O3  <0> d          -7.008  -2.921   0.055  0.00  0.00    -0.360 OA
ATOM     30  H7  <0> d          -7.337  -3.127   0.941  0.00  0.00     0.217 HD
ENDBRANCH  21  29
ENDBRANCH  16  17
ENDBRANCH   1  16
TORSDOF 7
