REMARK  7 active torsions:
REMARK  status: ('A' for Active; 'I' for Inactive)
REMARK    1  A    between atoms: C2_3  and  N5_27 
REMARK    2  A    between atoms: N3_7  and  C6_10 
REMARK    3  A    between atoms: C7_12  and  O7_26 
REMARK    4  A    between atoms: C8_14  and  O6_25 
REMARK    5  A    between atoms: C9_16  and  C10_19 
REMARK    6  A    between atoms: C10_19  and  O2_20 
REMARK    7  A    between atoms: O2_20  and  P1_21 
ROOT
ATOM      1  C6  <0> d           0.596  -3.135  -0.019  0.00  0.00     0.139 C 
ATOM      2  H1  <0> d          -0.283  -2.915   0.587  0.00  0.00     0.122 H 
ATOM      3  C7  <0> d           0.177  -3.493  -1.463  0.00  0.00     0.105 C 
ATOM      4  H2  <0> d           0.927  -3.146  -2.175  0.00  0.00     0.093 H 
ATOM      5  C8  <0> d           0.106  -5.036  -1.461  0.00  0.00     0.091 C 
ATOM      6  H3  <0> d           0.819  -5.453  -2.172  0.00  0.00     0.091 H 
ATOM      7  C9  <0> d           0.489  -5.428  -0.017  0.00  0.00     0.089 C 
ATOM      8  H4  <0> d          -0.407  -5.562   0.591  0.00  0.00     0.090 H 
ATOM      9  O1  <0> d           1.266  -4.314   0.476  0.00  0.00    -0.353 OA
ENDROOT
BRANCH   1  10
ATOM     10  N3  <0> d           1.511  -1.991  -0.023  0.00  0.00    -0.294 N 
ATOM     11  C4  <0> d           1.155  -0.666  -0.013  0.00  0.00     0.167 A 
ATOM     12  C3  <0> d           2.358   0.059  -0.020  0.00  0.00     0.149 A 
ATOM     13  N2  <0> d           0.002  -0.004   0.002  0.00  0.00    -0.222 NA
ATOM     14  C2  <0> d           2.288   1.462  -0.012  0.00  0.00     0.155 A 
ATOM     15  N4  <0> d           3.368  -0.844  -0.034  0.00  0.00    -0.236 NA
ATOM     16  N1  <0> d           1.089   2.036   0.003  0.00  0.00    -0.222 NA
ATOM     17  C1  <0> d          -0.016   1.312   0.009  0.00  0.00     0.091 A 
ATOM     18  H5  <0> d          -0.969   1.819   0.026  0.00  0.00     0.146 H 
ATOM     19  C5  <0> d           2.873  -2.048  -0.036  0.00  0.00     0.071 A 
ATOM     20  H6  <0> d           3.455  -2.957  -0.046  0.00  0.00     0.144 H 
BRANCH  14  21
ATOM     21  N5  <0> d           3.439   2.229  -0.019  0.00  0.00    -0.382 N 
ATOM     22  H11 <0> d           3.377   3.197  -0.014  0.00  0.00     0.157 HD
ATOM     23  H12 <0> d           4.309   1.799  -0.030  0.00  0.00     0.157 HD
ENDBRANCH  14  21
ENDBRANCH   1  10
BRANCH   3  24
ATOM     24  O7  <0> d          -1.100  -2.930  -1.768  0.00  0.00    -0.388 OA
ATOM     25  H10 <0> d          -1.411  -3.124  -2.663  0.00  0.00     0.210 HD
ENDBRANCH   3  24
BRANCH   7  26
ATOM     26  C10 <0> d           1.327  -6.708  -0.016  0.00  0.00     0.059 C 
ATOM     27  H7  <0> d           0.788  -7.495  -0.543  0.00  0.00     0.079 H 
ATOM     28  H8  <0> d           2.277  -6.520  -0.518  0.00  0.00     0.079 H 
BRANCH  26  29
ATOM     29  O2  <0> d           1.572  -7.117   1.331  0.00  0.00    -0.280 OA
BRANCH  29  30
ATOM     30  P1  <0> d           2.426  -8.429   1.708  0.00  0.00     0.422 P 
ATOM     31  O3  <0> d           1.809  -9.677   0.989  0.00  0.00    -0.617 OA
ATOM     32  O4  <0> d           3.909  -8.239   1.242  0.00  0.00    -0.617 OA
ATOM     33  O5  <0> d           2.389  -8.648   3.258  0.00  0.00    -0.617 OA
ENDBRANCH  29  30
ENDBRANCH  26  29
ENDBRANCH   7  26
BRANCH   5  34
ATOM     34  O6  <0> d          -1.219  -5.476  -1.767  0.00  0.00    -0.390 OA
ATOM     35  H9  <0> d          -1.531  -5.205  -2.641  0.00  0.00     0.210 HD
ENDBRANCH   5  34
TORSDOF 7
