REMARK  7 active torsions:
REMARK  status: ('A' for Active; 'I' for Inactive)
REMARK    1  A    between atoms: C3_4  and  N5_28 
REMARK    2  A    between atoms: N4_9  and  C6_10 
REMARK    3  A    between atoms: C7_12  and  O7_26 
REMARK    4  A    between atoms: C8_14  and  O6_25 
REMARK    5  A    between atoms: C9_16  and  C10_19 
REMARK    6  A    between atoms: C10_19  and  O2_20 
REMARK    7  A    between atoms: O2_20  and  P1_21 
ROOT
ATOM      1  C6  <0> d          -1.167  -0.887   0.009  0.00  0.00     0.139 C 
ATOM      2  H1  <0> d          -0.975  -1.774  -0.594  0.00  0.00     0.122 H 
ATOM      3  C7  <0> d          -1.530  -1.288   1.456  0.00  0.00     0.105 C 
ATOM      4  H2  <0> d          -1.129  -2.274   1.691  0.00  0.00     0.093 H 
ATOM      5  C8  <0> d          -3.075  -1.316   1.462  0.00  0.00     0.091 C 
ATOM      6  H3  <0> d          -3.467  -0.588   2.171  0.00  0.00     0.091 H 
ATOM      7  C9  <0> d          -3.462  -0.929   0.017  0.00  0.00     0.089 C 
ATOM      8  H4  <0> d          -3.624  -1.823  -0.585  0.00  0.00     0.090 H 
ATOM      9  O1  <0> d          -2.329  -0.186  -0.485  0.00  0.00    -0.353 OA
ENDROOT
BRANCH   1  10
ATOM     10  N4  <0> d           0.002  -0.004   0.002  0.00  0.00    -0.294 N 
ATOM     11  C1  <0> d          -0.016   1.359   0.009  0.00  0.00     0.071 A 
ATOM     12  N1  <0> d           1.200   1.820   0.000  0.00  0.00    -0.236 NA
ATOM     13  H5  <0> d          -0.909   1.967   0.025  0.00  0.00     0.144 H 
ATOM     14  C2  <0> d           2.075   0.785  -0.013  0.00  0.00     0.149 A 
ATOM     15  C5  <0> d           1.316  -0.397  -0.013  0.00  0.00     0.170 A 
ATOM     16  C3  <0> d           3.476   0.675  -0.028  0.00  0.00     0.159 A 
ATOM     17  N3  <0> d           1.945  -1.569  -0.025  0.00  0.00    -0.182 NA
ATOM     18  C4  <0> d           3.262  -1.624  -0.039  0.00  0.00     0.313 A 
ATOM     19  N2  <0> d           4.017  -0.538  -0.040  0.00  0.00    -0.183 NA
ATOM     20  F1  <0> d           3.863  -2.834  -0.052  0.00  0.00    -0.161 F 
BRANCH  16  21
ATOM     21  N5  <0> d           4.274   1.806  -0.030  0.00  0.00    -0.382 N 
ATOM     22  H10 <0> d           3.867   2.687  -0.021  0.00  0.00     0.157 HD
ATOM     23  H11 <0> d           5.240   1.718  -0.040  0.00  0.00     0.157 HD
ENDBRANCH  16  21
ENDBRANCH   1  10
BRANCH   3  24
ATOM     24  O7  <0> d          -1.041  -0.316   2.382  0.00  0.00    -0.388 OA
ATOM     25  H9  <0> d          -1.241  -0.518   3.307  0.00  0.00     0.210 HD
ENDBRANCH   3  24
BRANCH   7  26
ATOM     26  C10 <0> d          -4.718  -0.055   0.019  0.00  0.00     0.059 C 
ATOM     27  H6  <0> d          -5.518  -0.570   0.552  0.00  0.00     0.079 H 
ATOM     28  H7  <0> d          -4.502   0.891   0.515  0.00  0.00     0.079 H 
BRANCH  26  29
ATOM     29  O2  <0> d          -5.127   0.195  -1.327  0.00  0.00    -0.280 OA
BRANCH  29  30
ATOM     30  P1  <0> d          -6.416   1.083  -1.702  0.00  0.00     0.422 P 
ATOM     31  O3  <0> d          -7.678   0.505  -0.974  0.00  0.00    -0.617 OA
ATOM     32  O4  <0> d          -6.182   2.563  -1.244  0.00  0.00    -0.617 OA
ATOM     33  O5  <0> d          -6.644   1.045  -3.252  0.00  0.00    -0.617 OA
ENDBRANCH  29  30
ENDBRANCH  26  29
ENDBRANCH   7  26
BRANCH   5  34
ATOM     34  O6  <0> d          -3.550  -2.627   1.777  0.00  0.00    -0.390 OA
ATOM     35  H8  <0> d          -3.283  -2.942   2.651  0.00  0.00     0.210 HD
ENDBRANCH   5  34
TORSDOF 7
