REMARK  8 active torsions:
REMARK  status: ('A' for Active; 'I' for Inactive)
REMARK    1  A    between atoms: C9_10  and  C10_13 
REMARK    2  A    between atoms: C10_13  and  C11_15 
REMARK    3  A    between atoms: C10_13  and  O4_32 
REMARK    4  A    between atoms: C11_15  and  N1_53 
REMARK    5  A    between atoms: C12_16  and  C13_17 
REMARK    6  A    between atoms: C12_16  and  N1_53 
REMARK    7  A    between atoms: C13_17  and  C14_19 
REMARK    8  A    between atoms: C13_17  and  O3_31 
ROOT
ATOM      1  N1  <0> d          -0.002  -0.010   0.010  0.00  0.00    -0.070 N 
ATOM      2  H25 <0> d           0.492  -0.344   0.845  0.00  0.00     0.277 HD
ATOM      3  H26 <0> d          -0.968  -0.359   0.021  0.00  0.00     0.277 HD
ENDROOT
BRANCH   1   4
ATOM      4  C11 <0> d           0.683  -0.515  -1.195  0.00  0.00     0.107 C 
ATOM      5  H12 <0> d           0.161  -0.167  -2.086  0.00  0.00     0.079 H 
ATOM      6  H13 <0> d           1.711  -0.151  -1.211  0.00  0.00     0.079 H 
BRANCH   4   7
ATOM      7  C10 <0> d           0.684  -2.045  -1.168  0.00  0.00     0.084 C 
ATOM      8  H2  <0> d           1.127  -2.391  -0.234  0.00  0.00     0.089 H 
BRANCH   7   9
ATOM      9  C9  <0> d           1.501  -2.575  -2.348  0.00  0.00     0.071 C 
ATOM     10  C8  <0> d           1.527  -4.109  -2.310  0.00  0.00    -0.034 C 
ATOM     11  C7  <0> d           2.254  -4.607  -3.562  0.00  0.00    -0.036 C 
ATOM     12  H10 <0> d           2.056  -4.445  -1.419  0.00  0.00     0.037 H 
ATOM     13  H11 <0> d           0.507  -4.493  -2.300  0.00  0.00     0.037 H 
ATOM     14  C4  <0> d           3.546  -3.851  -3.733  0.00  0.00    -0.022 A 
ATOM     15  H8  <0> d           1.622  -4.449  -4.436  0.00  0.00     0.040 H 
ATOM     16  H9  <0> d           2.467  -5.671  -3.457  0.00  0.00     0.040 H 
ATOM     17  C3  <0> d           3.771  -2.650  -3.083  0.00  0.00     0.075 A 
ATOM     18  C5  <0> d           4.521  -4.379  -4.563  0.00  0.00    -0.037 A 
ATOM     19  C2  <0> d           4.974  -1.978  -3.271  0.00  0.00    -0.047 A 
ATOM     20  O1  <0> d           2.844  -2.099  -2.256  0.00  0.00    -0.343 OA
ATOM     21  C1  <0> d           5.943  -2.507  -4.100  0.00  0.00    -0.043 A 
ATOM     22  H6  <0> d           5.151  -1.040  -2.767  0.00  0.00     0.087 H 
ATOM     23  C6  <0> d           5.718  -3.710  -4.747  0.00  0.00     0.117 A 
ATOM     24  H5  <0> d           6.876  -1.982  -4.244  0.00  0.00     0.088 H 
ATOM     25  F1  <0> d           6.665  -4.229  -5.558  0.00  0.00    -0.206 F 
ATOM     26  H7  <0> d           4.347  -5.317  -5.069  0.00  0.00     0.089 H 
ATOM     27  H1  <0> d           1.055  -2.238  -3.284  0.00  0.00     0.088 H 
ENDBRANCH   7   9
BRANCH   7  28
ATOM     28  O4  <0> d          -0.659  -2.523  -1.264  0.00  0.00    -0.391 OA
ATOM     29  H24 <0> d          -1.116  -2.252  -2.072  0.00  0.00     0.210 HD
ENDBRANCH   7  28
ENDBRANCH   4   7
ENDBRANCH   1   4
BRANCH   1  30
ATOM     30  C12 <0> d          -0.018   1.465   0.010  0.00  0.00     0.107 C 
ATOM     31  H14 <0> d           1.005   1.842   0.002  0.00  0.00     0.079 H 
ATOM     32  H15 <0> d          -0.545   1.826  -0.873  0.00  0.00     0.079 H 
BRANCH  30  33
ATOM     33  C13 <0> d          -0.734   1.958   1.269  0.00  0.00     0.084 C 
ATOM     34  H3  <0> d          -0.207   1.597   2.152  0.00  0.00     0.089 H 
BRANCH  33  35
ATOM     35  C14 <0> d          -0.755   3.488   1.277  0.00  0.00     0.071 C 
ATOM     36  H4  <0> d           0.264   3.869   1.350  0.00  0.00     0.088 H 
ATOM     37  O2  <0> d          -1.364   3.967   0.078  0.00  0.00    -0.343 OA
ATOM     38  C22 <0> d          -1.677   5.288   0.009  0.00  0.00     0.075 A 
ATOM     39  C17 <0> d          -1.757   6.078   1.142  0.00  0.00    -0.022 A 
ATOM     40  C21 <0> d          -1.928   5.846  -1.240  0.00  0.00    -0.047 A 
ATOM     41  C16 <0> d          -1.487   5.514   2.514  0.00  0.00    -0.036 C 
ATOM     42  C18 <0> d          -2.090   7.418   1.026  0.00  0.00    -0.037 A 
ATOM     43  C15 <0> d          -1.579   3.987   2.471  0.00  0.00    -0.034 C 
ATOM     44  H18 <0> d          -2.224   5.902   3.217  0.00  0.00     0.040 H 
ATOM     45  H19 <0> d          -0.488   5.809   2.836  0.00  0.00     0.040 H 
ATOM     46  H16 <0> d          -2.619   3.685   2.351  0.00  0.00     0.037 H 
ATOM     47  H17 <0> d          -1.178   3.569   3.395  0.00  0.00     0.037 H 
ATOM     48  C19 <0> d          -2.341   7.969  -0.217  0.00  0.00     0.117 A 
ATOM     49  H20 <0> d          -2.155   8.034   1.911  0.00  0.00     0.089 H 
ATOM     50  C20 <0> d          -2.259   7.181  -1.352  0.00  0.00    -0.043 A 
ATOM     51  F2  <0> d          -2.667   9.276  -0.323  0.00  0.00    -0.206 F 
ATOM     52  H21 <0> d          -2.454   7.610  -2.324  0.00  0.00     0.088 H 
ATOM     53  H22 <0> d          -1.864   5.232  -2.127  0.00  0.00     0.087 H 
ENDBRANCH  33  35
BRANCH  33  54
ATOM     54  O3  <0> d          -2.075   1.464   1.279  0.00  0.00    -0.391 OA
ATOM     55  H23 <0> d          -2.604   1.746   0.520  0.00  0.00     0.210 HD
ENDBRANCH  33  54
ENDBRANCH  30  33
ENDBRANCH   1  30
TORSDOF 8
