REMARK  10 active torsions:
REMARK  status: ('A' for Active; 'I' for Inactive)
REMARK    1  A    between atoms: C10_10  and  S1_11 
REMARK    2  A    between atoms: N1_14  and  N2_15 
REMARK    3  A    between atoms: N2_15  and  C11_16 
REMARK    4  A    between atoms: C13_18  and  C27_39 
REMARK    5  A    between atoms: C14_19  and  O6_38 
REMARK    6  A    between atoms: C15_20  and  N3_23 
REMARK    7  A    between atoms: C16_21  and  O3_22 
REMARK    8  A    between atoms: N3_23  and  N4_24 
REMARK    9  A    between atoms: C20_28  and  S2_35 
REMARK   10  A    between atoms: C27_39  and  O7_40 
ROOT
ATOM      1  C11 <0> d           1.928   2.072  -1.171  0.00  0.00     0.115 A 
ATOM      2  C12 <0> d           3.322   2.127  -1.293  0.00  0.00    -0.040 A 
ATOM      3  C13 <0> d           4.118   2.159  -0.169  0.00  0.00     0.003 A 
ATOM      4  C14 <0> d           3.549   2.135   1.097  0.00  0.00     0.107 A 
ATOM      5  C15 <0> d           2.152   2.085   1.241  0.00  0.00     0.148 A 
ATOM      6  C16 <0> d           1.339   2.048   0.101  0.00  0.00     0.130 A 
ATOM      7  H7  <0> d           3.775   2.146  -2.273  0.00  0.00     0.088 H 
ENDROOT
BRANCH   1   8
ATOM      8  N2  <0> d           1.146   2.041  -2.286  0.00  0.00    -0.147 NA
BRANCH   8   9
ATOM      9  N1  <0> d           1.690   2.063  -3.456  0.00  0.00    -0.149 NA
ATOM     10  C7  <0> d           0.908   2.032  -4.571  0.00  0.00     0.090 A 
ATOM     11  C5  <0> d           1.508   2.056  -5.904  0.00  0.00     0.006 A 
ATOM     12  C8  <0> d          -0.477   1.970  -4.466  0.00  0.00    -0.051 A 
ATOM     13  C4  <0> d           0.658   2.022  -7.037  0.00  0.00     0.001 A 
ATOM     14  C6  <0> d           2.895   2.111  -6.081  0.00  0.00    -0.070 A 
ATOM     15  C3  <0> d           1.227   2.045  -8.322  0.00  0.00    -0.071 A 
ATOM     16  C10 <0> d          -0.734   1.965  -6.855  0.00  0.00     0.091 A 
ATOM     17  C2  <0> d           2.580   2.099  -8.458  0.00  0.00    -0.082 A 
ATOM     18  H3  <0> d           0.594   2.020  -9.197  0.00  0.00     0.084 H 
ATOM     19  C1  <0> d           3.413   2.132  -7.342  0.00  0.00    -0.082 A 
ATOM     20  H2  <0> d           3.015   2.116  -9.447  0.00  0.00     0.083 H 
ATOM     21  H1  <0> d           4.484   2.174  -7.478  0.00  0.00     0.083 H 
ATOM     22  C9  <0> d          -1.271   1.942  -5.604  0.00  0.00    -0.056 A 
ATOM     23  H6  <0> d          -2.344   1.897  -5.495  0.00  0.00     0.086 H 
ATOM     24  H4  <0> d           3.551   2.137  -5.224  0.00  0.00     0.084 H 
ATOM     25  H5  <0> d          -0.940   1.947  -3.490  0.00  0.00     0.087 H 
BRANCH  16  26
ATOM     26  S1  <0> d          -1.796   1.922  -8.261  0.00  0.00     0.138 S 
ATOM     27  O1  <0> d          -3.099   2.243  -7.794  0.00  0.00    -0.591 OA
ATOM     28  O2  <0> d          -1.148   2.667  -9.282  0.00  0.00    -0.591 OA
ATOM     29  O8  <0> d          -1.848   0.479  -8.741  0.00  0.00    -0.591 OA
ENDBRANCH  16  26
ENDBRANCH   8   9
ENDBRANCH   1   8
BRANCH   6  30
ATOM     30  O3  <0> d          -0.010   1.994   0.227  0.00  0.00    -0.356 OA
ATOM     31  H8  <0> d          -0.367   1.096   0.263  0.00  0.00     0.218 HD
ENDBRANCH   6  30
BRANCH   5  32
ATOM     32  N3  <0> d           1.592   2.068   2.482  0.00  0.00    -0.144 NA
BRANCH  32  33
ATOM     33  N4  <0> d           0.310   2.017   2.611  0.00  0.00    -0.149 NA
ATOM     34  C17 <0> d          -0.250   2.000   3.853  0.00  0.00     0.090 A 
ATOM     35  C22 <0> d          -1.702   1.942   4.017  0.00  0.00     0.006 A 
ATOM     36  C18 <0> d           0.547   2.031   4.992  0.00  0.00    -0.051 A 
ATOM     37  C21 <0> d          -2.243   1.927   5.326  0.00  0.00     0.001 A 
ATOM     38  C23 <0> d          -2.562   1.903   2.913  0.00  0.00    -0.070 A 
ATOM     39  C20 <0> d          -1.376   1.965   6.431  0.00  0.00     0.091 A 
ATOM     40  C26 <0> d          -3.637   1.870   5.491  0.00  0.00    -0.071 A 
ATOM     41  C19 <0> d          -0.027   2.018   6.255  0.00  0.00    -0.056 A 
ATOM     42  H10 <0> d           0.614   2.047   7.124  0.00  0.00     0.086 H 
ATOM     43  C25 <0> d          -4.444   1.833   4.396  0.00  0.00    -0.082 A 
ATOM     44  H14 <0> d          -4.066   1.856   6.482  0.00  0.00     0.084 H 
ATOM     45  C24 <0> d          -3.909   1.849   3.110  0.00  0.00    -0.082 A 
ATOM     46  H13 <0> d          -5.516   1.790   4.525  0.00  0.00     0.083 H 
ATOM     47  H12 <0> d          -4.572   1.819   2.257  0.00  0.00     0.083 H 
ATOM     48  H11 <0> d          -2.159   1.914   1.910  0.00  0.00     0.084 H 
ATOM     49  H9  <0> d           1.621   2.069   4.893  0.00  0.00     0.087 H 
BRANCH  39  50
ATOM     50  S2  <0> d          -2.043   1.946   8.062  0.00  0.00     0.138 S 
ATOM     51  O4  <0> d          -3.239   1.181   8.003  0.00  0.00    -0.591 OA
ATOM     52  O5  <0> d          -0.971   1.618   8.935  0.00  0.00    -0.591 OA
ATOM     53  O9  <0> d          -2.456   3.373   8.396  0.00  0.00    -0.591 OA
ENDBRANCH  39  50
ENDBRANCH  32  33
ENDBRANCH   5  32
BRANCH   3  54
ATOM     54  C27 <0> d           5.617   2.218  -0.314  0.00  0.00     0.043 C 
ATOM     55  H16 <0> d           5.992   3.123   0.162  0.00  0.00     0.081 H 
ATOM     56  H17 <0> d           6.063   1.345   0.162  0.00  0.00     0.081 H 
BRANCH  54  57
ATOM     57  O7  <0> d           5.960   2.232  -1.701  0.00  0.00    -0.396 OA
ATOM     58  H18 <0> d           6.911   2.270  -1.871  0.00  0.00     0.209 HD
ENDBRANCH  54  57
ENDBRANCH   3  54
BRANCH   4  59
ATOM     59  O6  <0> d           4.342   2.167   2.197  0.00  0.00    -0.358 OA
ATOM     60  H15 <0> d           4.536   3.059   2.516  0.00  0.00     0.217 HD
ENDBRANCH   4  59
TORSDOF 10
