REMARK  8 active torsions:
REMARK  status: ('A' for Active; 'I' for Inactive)
REMARK    1  A    between atoms: C4_5  and  N2_7 
REMARK    2  A    between atoms: N2_7  and  S1_8 
REMARK    3  A    between atoms: S1_8  and  C6_11 
REMARK    4  A    between atoms: C9_14  and  N3_17 
REMARK    5  A    between atoms: N3_17  and  N4_18 
REMARK    6  A    between atoms: N4_18  and  C12_19 
REMARK    7  A    between atoms: C15_22  and  O5_28 
REMARK    8  A    between atoms: C16_23  and  C18_25 
ROOT
ATOM      1  C6  <0> d           2.403  -4.510  -0.049  0.00  0.00     0.081 A 
ATOM      2  C7  <0> d           2.277  -5.191   1.149  0.00  0.00    -0.058 A 
ATOM      3  C8  <0> d           2.012  -6.545   1.151  0.00  0.00    -0.052 A 
ATOM      4  C9  <0> d           1.870  -7.227  -0.060  0.00  0.00     0.079 A 
ATOM      5  C10 <0> d           1.998  -6.532  -1.265  0.00  0.00    -0.052 A 
ATOM      6  C11 <0> d           2.258  -5.178  -1.252  0.00  0.00    -0.058 A 
ATOM      7  H5  <0> d           2.388  -4.662   2.084  0.00  0.00     0.086 H 
ATOM      8  H6  <0> d           1.915  -7.075   2.087  0.00  0.00     0.087 H 
ATOM      9  H7  <0> d           1.890  -7.054  -2.205  0.00  0.00     0.087 H 
ATOM     10  H8  <0> d           2.353  -4.638  -2.183  0.00  0.00     0.086 H 
ENDROOT
BRANCH   4  11
ATOM     11  N3  <0> d           1.607  -8.569  -0.065  0.00  0.00    -0.150 NA
BRANCH  11  12
ATOM     12  N4  <0> d           1.477  -9.196  -1.185  0.00  0.00    -0.150 NA
BRANCH  12  13
ATOM     13  C12 <0> d           1.214 -10.537  -1.190  0.00  0.00     0.080 A 
ATOM     14  C17 <0> d           1.073 -11.214  -2.400  0.00  0.00    -0.034 A 
ATOM     15  C16 <0> d           0.810 -12.584  -2.398  0.00  0.00     0.076 A 
ATOM     16  H11 <0> d           1.171 -10.682  -3.334  0.00  0.00     0.088 H 
ATOM     17  C15 <0> d           0.679 -13.268  -1.178  0.00  0.00     0.082 A 
ATOM     18  C14 <0> d           0.816 -12.580   0.021  0.00  0.00    -0.048 A 
ATOM     19  C13 <0> d           1.081 -11.229   0.021  0.00  0.00    -0.051 A 
ATOM     20  H10 <0> d           0.716 -13.107   0.959  0.00  0.00     0.087 H 
ATOM     21  H9  <0> d           1.187 -10.701   0.957  0.00  0.00     0.087 H 
BRANCH  15  22
ATOM     22  C18 <0> d           0.665 -13.310  -3.671  0.00  0.00     0.212 C 
ATOM     23  O3  <0> d           0.780 -12.713  -4.732  0.00  0.00    -0.644 OA
ATOM     24  O4  <0> d           0.430 -14.511  -3.667  0.00  0.00    -0.644 OA
ENDBRANCH  15  22
BRANCH  17  25
ATOM     25  O5  <0> d           0.418 -14.597  -1.171  0.00  0.00    -0.360 OA
ATOM     26  H12 <0> d          -0.524 -14.813  -1.166  0.00  0.00     0.217 HD
ENDBRANCH  17  25
ENDBRANCH  12  13
ENDBRANCH  11  12
ENDBRANCH   4  11
BRANCH   1  27
ATOM     27  S1  <0> d           2.743  -2.780  -0.042  0.00  0.00     0.285 S 
ATOM     28  O1  <0> d           3.348  -2.481  -1.292  0.00  0.00    -0.198 OA
ATOM     29  O2  <0> d           3.374  -2.495   1.199  0.00  0.00    -0.198 OA
BRANCH  27  30
ATOM     30  N2  <0> d           1.285  -1.996  -0.022  0.00  0.00    -0.142 NA
BRANCH  30  31
ATOM     31  C4  <0> d           1.246  -0.679  -0.014  0.00  0.00     0.140 A 
ATOM     32  N1  <0> d           2.412   0.047  -0.022  0.00  0.00    -0.350 N 
ATOM     33  C3  <0> d           2.374   1.409  -0.013  0.00  0.00    -0.021 A 
ATOM     34  H13 <0> d           3.266  -0.412  -0.033  0.00  0.00     0.166 HD
ATOM     35  C2  <0> d           1.195   2.067   0.002  0.00  0.00    -0.068 A 
ATOM     36  H3  <0> d           3.297   1.969  -0.020  0.00  0.00     0.111 H 
ATOM     37  C1  <0> d          -0.016   1.354   0.009  0.00  0.00    -0.078 A 
ATOM     38  H2  <0> d           1.183   3.147   0.008  0.00  0.00     0.085 H 
ATOM     39  C5  <0> d           0.002  -0.004   0.002  0.00  0.00    -0.038 A 
ATOM     40  H1  <0> d          -0.957   1.884   0.026  0.00  0.00     0.083 H 
ATOM     41  H4  <0> d          -0.922  -0.563   0.008  0.00  0.00     0.089 H 
ENDBRANCH  30  31
ENDBRANCH  27  30
ENDBRANCH   1  27
TORSDOF 8
