REMARK  8 active torsions:
REMARK  status: ('A' for Active; 'I' for Inactive)
REMARK    1  A    between atoms: C1_1  and  C2_2 
REMARK    2  A    between atoms: C2_2  and  C3_3 
REMARK    3  A    between atoms: C6_6  and  C8_9 
REMARK    4  A    between atoms: C8_9  and  C9_10 
REMARK    5  A    between atoms: C9_10  and  O1_11 
REMARK    6  A    between atoms: O1_11  and  C10_12 
REMARK    7  A    between atoms: C13_15  and  C16_18 
REMARK    8  A    between atoms: C16_18  and  C17_19 
ROOT
ATOM      1  O1  <0> d           4.677  -1.343  -6.091  0.00  0.00    -0.351 OA
ENDROOT
BRANCH   1   2
ATOM      2  C9  <0> d           3.956  -0.882  -4.947  0.00  0.00     0.031 C 
ATOM      3  H12 <0> d           3.548   0.108  -5.148  0.00  0.00     0.075 H 
ATOM      4  H13 <0> d           4.628  -0.831  -4.090  0.00  0.00     0.075 H 
BRANCH   2   5
ATOM      5  C8  <0> d           2.812  -1.852  -4.641  0.00  0.00    -0.004 C 
ATOM      6  H10 <0> d           3.220  -2.842  -4.439  0.00  0.00     0.045 H 
ATOM      7  H11 <0> d           2.140  -1.903  -5.498  0.00  0.00     0.045 H 
BRANCH   5   8
ATOM      8  C6  <0> d           2.051  -1.367  -3.434  0.00  0.00     0.036 A 
ATOM      9  C5  <0> d           0.686  -1.169  -3.521  0.00  0.00    -0.059 A 
ATOM     10  C4  <0> d          -0.004  -0.722  -2.405  0.00  0.00    -0.074 A 
ATOM     11  H8  <0> d           0.164  -1.360  -4.447  0.00  0.00     0.086 H 
ATOM     12  C3  <0> d           0.707  -0.490  -1.238  0.00  0.00    -0.041 A 
ATOM     13  H7  <0> d          -1.071  -0.559  -2.444  0.00  0.00     0.084 H 
ATOM     14  C7  <0> d           2.072  -0.705  -1.228  0.00  0.00     0.009 A 
ATOM     15  N1  <0> d           2.696  -1.136  -2.307  0.00  0.00    -0.265 NA
ATOM     16  H9  <0> d           2.635  -0.522  -0.324  0.00  0.00     0.115 H 
BRANCH  12  17
ATOM     17  C2  <0> d           0.002  -0.004   0.002  0.00  0.00    -0.043 C 
ATOM     18  H5  <0> d           0.529  -0.365   0.885  0.00  0.00     0.039 H 
ATOM     19  H6  <0> d          -1.020  -0.381   0.010  0.00  0.00     0.039 H 
BRANCH  17  20
ATOM     20  C1  <0> d          -0.019   1.526   0.010  0.00  0.00    -0.073 C 
ATOM     21  H2  <0> d           1.004   1.903   0.003  0.00  0.00     0.028 H 
ATOM     22  H3  <0> d          -0.546   1.887  -0.873  0.00  0.00     0.028 H 
ATOM     23  H4  <0> d          -0.529   1.877   0.907  0.00  0.00     0.028 H 
ENDBRANCH  17  20
ENDBRANCH  12  17
ENDBRANCH   5   8
ENDBRANCH   2   5
ENDBRANCH   1   2
BRANCH   1  24
ATOM     24  C10 <0> d           5.733  -0.590  -6.499  0.00  0.00     0.068 A 
ATOM     25  C15 <0> d           6.478  -0.978  -7.603  0.00  0.00    -0.050 A 
ATOM     26  C14 <0> d           7.546  -0.208  -8.019  0.00  0.00    -0.074 A 
ATOM     27  H17 <0> d           6.219  -1.879  -8.140  0.00  0.00     0.087 H 
ATOM     28  C13 <0> d           7.881   0.943  -7.329  0.00  0.00    -0.056 A 
ATOM     29  H16 <0> d           8.123  -0.507  -8.882  0.00  0.00     0.084 H 
ATOM     30  C12 <0> d           7.144   1.329  -6.225  0.00  0.00    -0.074 A 
ATOM     31  C11 <0> d           6.070   0.565  -5.808  0.00  0.00    -0.050 A 
ATOM     32  H15 <0> d           7.407   2.228  -5.687  0.00  0.00     0.084 H 
ATOM     33  H14 <0> d           5.494   0.867  -4.946  0.00  0.00     0.087 H 
BRANCH  28  34
ATOM     34  C16 <0> d           9.051   1.778  -7.781  0.00  0.00    -0.021 C 
ATOM     35  H18 <0> d           9.171   1.681  -8.860  0.00  0.00     0.042 H 
ATOM     36  H19 <0> d           8.872   2.822  -7.527  0.00  0.00     0.042 H 
BRANCH  34  37
ATOM     37  C17 <0> d          10.323   1.294  -7.082  0.00  0.00     0.081 A 
ATOM     38  H1  <0> d          10.198   1.284  -5.999  0.00  0.00     0.072 H 
ATOM     39  S1  <0> d          10.848  -0.355  -7.710  0.00  0.00    -0.054 SA
ATOM     40  C19 <0> d          12.430   0.144  -8.380  0.00  0.00     0.287 A 
ATOM     41  N2  <0> d          12.491   1.462  -8.114  0.00  0.00    -0.287 N 
ATOM     42  O3  <0> d          13.257  -0.546  -8.943  0.00  0.00    -0.260 OA
ATOM     43  C18 <0> d          11.531   2.126  -7.492  0.00  0.00     0.239 A 
ATOM     44  H20 <0> d          13.280   1.952  -8.395  0.00  0.00     0.172 HD
ATOM     45  O2  <0> d          11.608   3.314  -7.262  0.00  0.00    -0.272 OA
ENDBRANCH  34  37
ENDBRANCH  28  34
ENDBRANCH   1  24
TORSDOF 8
