REMARK  14 active torsions:
REMARK  status: ('A' for Active; 'I' for Inactive)
REMARK    1  A    between atoms: C1_1  and  C2_2 
REMARK    2  A    between atoms: C3_4  and  O10_51 
REMARK    3  A    between atoms: C4_6  and  N3_82 
REMARK    4  A    between atoms: C6_9  and  O2_12 
REMARK    5  A    between atoms: O2_12  and  C7_13 
REMARK    6  A    between atoms: C9_16  and  C26_38 
REMARK    7  A    between atoms: C9_16  and  O9_50 
REMARK    8  A    between atoms: C13_20  and  O7_37 
REMARK    9  A    between atoms: C16_23  and  O3_24 
REMARK   10  A    between atoms: C22_31  and  O6_35 
REMARK   11  A    between atoms: O6_35  and  C25_36 
REMARK   12  A    between atoms: C26_38  and  C34_49 
REMARK   13  A    between atoms: N1_39  and  N2_40 
REMARK       I    between atoms: N2_40  and  C27_41 
REMARK   14  A    between atoms: C27_41  and  C28_43 
ROOT
ATOM      1  C7  <0> d          -0.076   1.266   0.230  0.00  0.00     0.073 C 
ATOM      2  H5  <0> d          -0.567   1.571  -0.694  0.00  0.00     0.091 H 
ATOM      3  C8  <0> d          -0.281  -0.233   0.438  0.00  0.00    -0.003 C 
ATOM      4  C9  <0> d           0.530  -0.982  -0.626  0.00  0.00     0.106 C 
ATOM      5  C10 <0> d           2.014  -0.810  -0.307  0.00  0.00    -0.004 C 
ATOM      6  C11 <0> d           2.349   0.645  -0.104  0.00  0.00    -0.009 A 
ATOM      7  C12 <0> d           1.392   1.596   0.146  0.00  0.00     0.014 A 
ATOM      8  C13 <0> d           1.763   2.934   0.333  0.00  0.00     0.090 A 
ATOM      9  C14 <0> d           3.102   3.314   0.264  0.00  0.00     0.066 A 
ATOM     10  C15 <0> d           4.085   2.337   0.004  0.00  0.00     0.066 A 
ATOM     11  C16 <0> d           3.700   1.011  -0.178  0.00  0.00     0.088 A 
ATOM     12  C17 <0> d           5.505   2.722  -0.073  0.00  0.00     0.197 A 
ATOM     13  O4  <0> d           6.353   1.880  -0.298  0.00  0.00    -0.286 OA
ATOM     14  C18 <0> d           5.896   4.133   0.124  0.00  0.00     0.032 A 
ATOM     15  C19 <0> d           7.235   4.505   0.055  0.00  0.00    -0.068 A 
ATOM     16  C20 <0> d           7.597   5.829   0.240  0.00  0.00    -0.079 A 
ATOM     17  C21 <0> d           6.639   6.790   0.495  0.00  0.00    -0.050 A 
ATOM     18  C22 <0> d           5.295   6.439   0.569  0.00  0.00     0.083 A 
ATOM     19  C23 <0> d           4.914   5.106   0.384  0.00  0.00     0.062 A 
ATOM     20  C24 <0> d           3.493   4.721   0.461  0.00  0.00     0.200 A 
ATOM     21  O5  <0> d           2.645   5.563   0.686  0.00  0.00    -0.286 OA
ATOM     22  H11 <0> d           0.066  -0.517   1.431  0.00  0.00     0.042 H 
ATOM     23  H12 <0> d          -1.338  -0.477   0.333  0.00  0.00     0.042 H 
ATOM     24  H13 <0> d           2.252  -1.364   0.601  0.00  0.00     0.045 H 
ATOM     25  H14 <0> d           2.607  -1.204  -1.133  0.00  0.00     0.045 H 
ATOM     26  H16 <0> d           7.992   3.761  -0.144  0.00  0.00     0.085 H 
ATOM     27  H17 <0> d           8.638   6.113   0.184  0.00  0.00     0.083 H 
ATOM     28  H18 <0> d           6.935   7.818   0.637  0.00  0.00     0.087 H 
ENDROOT
BRANCH   1  29
ATOM     29  O2  <0> d          -0.656   1.976   1.326  0.00  0.00    -0.351 OA
BRANCH  29  30
ATOM     30  C6  <0> d          -2.054   2.236   1.177  0.00  0.00     0.134 C 
ATOM     31  C5  <0> d          -2.621   2.756   2.500  0.00  0.00     0.010 C 
ATOM     32  C4  <0> d          -4.105   3.088   2.315  0.00  0.00     0.131 C 
ATOM     33  H9  <0> d          -2.512   1.991   3.269  0.00  0.00     0.043 H 
ATOM     34  H10 <0> d          -2.081   3.654   2.799  0.00  0.00     0.043 H 
ATOM     35  C3  <0> d          -4.251   4.106   1.179  0.00  0.00     0.087 C 
ATOM     36  H3  <0> d          -4.653   2.180   2.064  0.00  0.00     0.088 H 
ATOM     37  C2  <0> d          -3.621   3.533  -0.093  0.00  0.00     0.065 C 
ATOM     38  H2  <0> d          -3.745   5.032   1.452  0.00  0.00     0.090 H 
ATOM     39  H1  <0> d          -3.684   4.270  -0.894  0.00  0.00     0.086 H 
ATOM     40  O1  <0> d          -2.250   3.217   0.157  0.00  0.00    -0.354 OA
ATOM     41  H4  <0> d          -2.566   1.315   0.898  0.00  0.00     0.129 H 
BRANCH  32  42
ATOM     42  N3  <0> d          -4.664   3.660   3.552  0.00  0.00    -0.072 N 
ATOM     43  H33 <0> d          -4.548   3.006   4.324  0.00  0.00     0.274 HD
ATOM     44  H34 <0> d          -4.193   4.535   3.776  0.00  0.00     0.274 HD
ATOM     45  H36 <0> d          -5.665   3.844   3.417  0.00  0.00     0.274 HD
ENDBRANCH  32  42
BRANCH  35  46
ATOM     46  O10 <0> d          -5.637   4.369   0.949  0.00  0.00    -0.391 OA
ATOM     47  H35 <0> d          -5.804   5.006   0.241  0.00  0.00     0.210 HD
ENDBRANCH  35  46
BRANCH  37  48
ATOM     48  C1  <0> d          -4.370   2.265  -0.507  0.00  0.00    -0.050 C 
ATOM     49  H6  <0> d          -5.415   2.506  -0.697  0.00  0.00     0.031 H 
ATOM     50  H7  <0> d          -3.921   1.857  -1.413  0.00  0.00     0.031 H 
ATOM     51  H8  <0> d          -4.306   1.528   0.293  0.00  0.00     0.031 H 
ENDBRANCH  37  48
ENDBRANCH  29  30
ENDBRANCH   1  29
BRANCH   8  52
ATOM     52  O7  <0> d           0.812   3.867   0.583  0.00  0.00    -0.359 OA
ATOM     53  H22 <0> d           0.432   4.265  -0.213  0.00  0.00     0.217 HD
ENDBRANCH   8  52
BRANCH   4  54
ATOM     54  C26 <0> d           0.171  -2.445  -0.602  0.00  0.00     0.063 C 
ATOM     55  N1  <0> d          -0.699  -2.877   0.232  0.00  0.00    -0.178 NA
BRANCH  55  56
ATOM     56  N2  <0> d          -1.032  -4.238   0.254  0.00  0.00    -0.243 N 
ATOM     57  C27 <0> d          -1.948  -4.692   1.132  0.00  0.00     0.271 C 
ATOM     58  O8  <0> d          -2.485  -3.922   1.904  0.00  0.00    -0.266 OA
ATOM     59  H23 <0> d          -0.604  -4.852  -0.362  0.00  0.00     0.192 HD
BRANCH  57  60
ATOM     60  C28 <0> d          -2.300  -6.128   1.156  0.00  0.00     0.033 A 
ATOM     61  C33 <0> d          -3.249  -6.602   2.064  0.00  0.00    -0.068 A 
ATOM     62  C32 <0> d          -3.573  -7.942   2.080  0.00  0.00    -0.082 A 
ATOM     63  H28 <0> d          -3.727  -5.921   2.752  0.00  0.00     0.085 H 
ATOM     64  C31 <0> d          -2.961  -8.816   1.200  0.00  0.00    -0.083 A 
ATOM     65  H27 <0> d          -4.307  -8.311   2.783  0.00  0.00     0.083 H 
ATOM     66  C30 <0> d          -2.020  -8.353   0.298  0.00  0.00    -0.082 A 
ATOM     67  H26 <0> d          -3.219  -9.865   1.217  0.00  0.00     0.083 H 
ATOM     68  C29 <0> d          -1.690  -7.014   0.267  0.00  0.00    -0.068 A 
ATOM     69  H25 <0> d          -1.545  -9.041  -0.387  0.00  0.00     0.083 H 
ATOM     70  H24 <0> d          -0.959  -6.653  -0.441  0.00  0.00     0.085 H 
ENDBRANCH  57  60
ENDBRANCH  55  56
BRANCH  54  71
ATOM     71  C34 <0> d           0.837  -3.400  -1.559  0.00  0.00    -0.035 C 
ATOM     72  H29 <0> d           1.741  -3.802  -1.102  0.00  0.00     0.035 H 
ATOM     73  H30 <0> d           0.153  -4.217  -1.791  0.00  0.00     0.035 H 
ATOM     74  H31 <0> d           1.097  -2.873  -2.477  0.00  0.00     0.035 H 
ENDBRANCH  54  71
ENDBRANCH   4  54
BRANCH   4  75
ATOM     75  O9  <0> d           0.250  -0.438  -1.917  0.00  0.00    -0.383 OA
ATOM     76  H32 <0> d           0.731  -0.867  -2.638  0.00  0.00     0.211 HD
ENDBRANCH   4  75
BRANCH  11  77
ATOM     77  O3  <0> d           4.639   0.066  -0.428  0.00  0.00    -0.359 OA
ATOM     78  H15 <0> d           4.826  -0.065  -1.368  0.00  0.00     0.217 HD
ENDBRANCH  11  77
BRANCH  18  79
ATOM     79  O6  <0> d           4.357   7.386   0.819  0.00  0.00    -0.355 OA
BRANCH  79  80
ATOM     80  C25 <0> d           4.820   8.727   0.997  0.00  0.00     0.010 C 
ATOM     81  H19 <0> d           5.508   8.764   1.843  0.00  0.00     0.066 H 
ATOM     82  H20 <0> d           5.336   9.056   0.095  0.00  0.00     0.066 H 
ATOM     83  H21 <0> d           3.971   9.382   1.190  0.00  0.00     0.066 H 
ENDBRANCH  79  80
ENDBRANCH  18  79
TORSDOF 14
