REMARK  8 active torsions:
REMARK  status: ('A' for Active; 'I' for Inactive)
REMARK    1  A    between atoms: C1_1  and  C2_2 
REMARK    2  A    between atoms: C2_2  and  O2_4 
REMARK    3  A    between atoms: O2_4  and  C3_5 
REMARK    4  A    between atoms: C3_5  and  C4_6 
REMARK    5  A    between atoms: C4_6  and  C5_8 
REMARK    6  A    between atoms: C5_8  and  O6_32 
REMARK    7  A    between atoms: C9_13  and  C23_31 
REMARK    8  A    between atoms: C21_29  and  C22_30 
ROOT
ATOM      1  C5  <0> d           0.155  -4.098  -2.667  0.00  0.00     0.128 C 
ATOM      2  C6  <0> d          -1.320  -4.559  -2.586  0.00  0.00    -0.028 C 
ATOM      3  C7  <0> d          -1.627  -5.286  -3.922  0.00  0.00    -0.057 C 
ATOM      4  C8  <0> d          -0.240  -5.737  -4.398  0.00  0.00    -0.039 C 
ATOM      5  H1  <0> d           0.095  -6.603  -3.825  0.00  0.00     0.042 H 
ATOM      6  C9  <0> d           0.630  -4.496  -4.063  0.00  0.00     0.005 C 
ATOM      7  C10 <0> d           2.088  -4.917  -4.162  0.00  0.00     0.001 C 
ATOM      8  C11 <0> d           2.296  -5.413  -5.587  0.00  0.00     0.133 C 
ATOM      9  O4  <0> d           3.222  -5.005  -6.245  0.00  0.00    -0.297 OA
ATOM     10  C12 <0> d           1.334  -6.418  -6.167  0.00  0.00     0.018 C 
ATOM     11  H2  <0> d           1.517  -7.393  -5.715  0.00  0.00     0.054 H 
ATOM     12  C13 <0> d          -0.122  -6.011  -5.883  0.00  0.00    -0.038 C 
ATOM     13  H3  <0> d          -0.355  -5.105  -6.443  0.00  0.00     0.042 H 
ATOM     14  C14 <0> d          -1.050  -7.149  -6.310  0.00  0.00    -0.057 C 
ATOM     15  C15 <0> d          -0.960  -7.315  -7.830  0.00  0.00    -0.043 C 
ATOM     16  C16 <0> d           0.492  -7.506  -8.228  0.00  0.00    -0.067 C 
ATOM     17  C17 <0> d           0.778  -8.503  -9.065  0.00  0.00    -0.036 C 
ATOM     18  C18 <0> d           2.161  -8.728  -9.498  0.00  0.00     0.149 C 
ATOM     19  O5  <0> d           2.529  -9.800  -9.930  0.00  0.00    -0.293 OA
ATOM     20  C19 <0> d           3.108  -7.550  -9.377  0.00  0.00    -0.005 C 
ATOM     21  C20 <0> d           2.956  -6.986  -7.965  0.00  0.00    -0.048 C 
ATOM     22  C21 <0> d           1.522  -6.521  -7.683  0.00  0.00    -0.009 C 
ATOM     23  H9  <0> d          -1.452  -5.244  -1.748  0.00  0.00     0.038 H 
ATOM     24  H10 <0> d          -1.976  -3.696  -2.471  0.00  0.00     0.038 H 
ATOM     25  H11 <0> d          -2.275  -6.146  -3.753  0.00  0.00     0.033 H 
ATOM     26  H12 <0> d          -2.076  -4.600  -4.640  0.00  0.00     0.033 H 
ATOM     27  H13 <0> d           2.738  -4.064  -3.965  0.00  0.00     0.045 H 
ATOM     28  H14 <0> d           2.295  -5.718  -3.453  0.00  0.00     0.045 H 
ATOM     29  H15 <0> d          -0.743  -8.074  -5.823  0.00  0.00     0.034 H 
ATOM     30  H16 <0> d          -2.076  -6.908  -6.029  0.00  0.00     0.034 H 
ATOM     31  H17 <0> d          -1.539  -8.186  -8.136  0.00  0.00     0.039 H 
ATOM     32  H18 <0> d          -1.357  -6.424  -8.318  0.00  0.00     0.039 H 
ATOM     33  H19 <0> d          -0.011  -9.146  -9.427  0.00  0.00     0.089 H 
ATOM     34  H20 <0> d           4.134  -7.881  -9.535  0.00  0.00     0.044 H 
ATOM     35  H21 <0> d           2.846  -6.787 -10.111  0.00  0.00     0.044 H 
ATOM     36  H22 <0> d           3.256  -7.746  -7.244  0.00  0.00     0.035 H 
ATOM     37  H23 <0> d           3.607  -6.119  -7.856  0.00  0.00     0.035 H 
ENDROOT
BRANCH   1  38
ATOM     38  C4  <0> d           0.245  -2.603  -2.492  0.00  0.00     0.185 C 
ATOM     39  O3  <0> d          -0.710  -1.908  -2.743  0.00  0.00    -0.292 OA
BRANCH  38  40
ATOM     40  C3  <0> d           1.526  -1.978  -2.004  0.00  0.00     0.086 C 
ATOM     41  H7  <0> d           2.332  -2.210  -2.699  0.00  0.00     0.087 H 
ATOM     42  H8  <0> d           1.771  -2.373  -1.018  0.00  0.00     0.087 H 
BRANCH  40  43
ATOM     43  O2  <0> d           1.362  -0.560  -1.921  0.00  0.00    -0.314 OA
BRANCH  43  44
ATOM     44  C2  <0> d           2.419   0.152  -1.499  0.00  0.00     0.255 C 
ATOM     45  O1  <0> d           3.449  -0.410  -1.209  0.00  0.00    -0.266 OA
BRANCH  44  46
ATOM     46  C1  <0> d           2.321   1.651  -1.386  0.00  0.00     0.004 C 
ATOM     47  H4  <0> d           2.621   2.107  -2.329  0.00  0.00     0.041 H 
ATOM     48  H5  <0> d           1.292   1.932  -1.158  0.00  0.00     0.041 H 
ATOM     49  H6  <0> d           2.978   1.999  -0.589  0.00  0.00     0.041 H 
ENDBRANCH  44  46
ENDBRANCH  43  44
ENDBRANCH  40  43
ENDBRANCH  38  40
ENDBRANCH   1  38
BRANCH   1  50
ATOM     50  O6  <0> d           0.938  -4.759  -1.671  0.00  0.00    -0.381 OA
ATOM     51  H30 <0> d           0.670  -4.560  -0.763  0.00  0.00     0.211 HD
ENDBRANCH   1  50
BRANCH   6  52
ATOM     52  C23 <0> d           0.334  -3.369  -5.054  0.00  0.00    -0.065 C 
ATOM     53  H27 <0> d           0.868  -2.468  -4.751  0.00  0.00     0.028 H 
ATOM     54  H28 <0> d           0.662  -3.667  -6.051  0.00  0.00     0.028 H 
ATOM     55  H29 <0> d          -0.737  -3.170  -5.069  0.00  0.00     0.028 H 
ENDBRANCH   6  52
BRANCH  22  56
ATOM     56  C22 <0> d           1.300  -5.132  -8.285  0.00  0.00    -0.065 C 
ATOM     57  H24 <0> d           2.023  -4.433  -7.863  0.00  0.00     0.028 H 
ATOM     58  H25 <0> d           1.429  -5.179  -9.366  0.00  0.00     0.028 H 
ATOM     59  H26 <0> d           0.290  -4.793  -8.054  0.00  0.00     0.028 H 
ENDBRANCH  22  56
TORSDOF 8
