REMARK  12 active torsions:
REMARK  status: ('A' for Active; 'I' for Inactive)
REMARK    1  A    between atoms: C1_1  and  N1_2 
REMARK    2  A    between atoms: N1_2  and  C2_3 
REMARK    3  A    between atoms: N1_2  and  C10_15 
REMARK    4  A    between atoms: C2_3  and  C3_4 
REMARK    5  A    between atoms: C3_4  and  C4_5 
REMARK    6  A    between atoms: C4_5  and  N2_6 
REMARK       I    between atoms: N2_6  and  C5_7 
REMARK    7  A    between atoms: C5_7  and  C6_9 
REMARK    8  A    between atoms: C13_19  and  O4_28 
REMARK    9  A    between atoms: C14_20  and  O3_26 
REMARK   10  A    between atoms: C17_23  and  N5_25 
REMARK   11  A    between atoms: O3_26  and  C18_27 
REMARK   12  A    between atoms: O4_28  and  C19_29 
ROOT
ATOM      1  N1  <0> d           0.002  -0.004   0.002  0.00  0.00    -0.220 N 
ENDROOT
BRANCH   1   2
ATOM      2  C1  <0> d          -0.018   1.461   0.010  0.00  0.00    -0.002 C 
ATOM      3  H2  <0> d           1.005   1.838   0.002  0.00  0.00     0.057 H 
ATOM      4  H3  <0> d          -0.545   1.822  -0.873  0.00  0.00     0.057 H 
ATOM      5  H4  <0> d          -0.528   1.812   0.907  0.00  0.00     0.057 H 
ENDBRANCH   1   2
BRANCH   1   6
ATOM      6  C2  <0> d           0.024  -0.743   1.267  0.00  0.00     0.013 C 
ATOM      7  H5  <0> d           0.550  -1.688   1.126  0.00  0.00     0.065 H 
ATOM      8  H6  <0> d           0.537  -0.151   2.025  0.00  0.00     0.065 H 
BRANCH   6   9
ATOM      9  C3  <0> d          -1.411  -1.020   1.720  0.00  0.00    -0.035 C 
ATOM     10  H7  <0> d          -1.936  -0.076   1.861  0.00  0.00     0.037 H 
ATOM     11  H8  <0> d          -1.923  -1.612   0.963  0.00  0.00     0.037 H 
BRANCH   9  12
ATOM     12  C4  <0> d          -1.387  -1.792   3.041  0.00  0.00    -0.003 C 
ATOM     13  H9  <0> d          -0.862  -2.737   2.901  0.00  0.00     0.064 H 
ATOM     14  H10 <0> d          -0.875  -1.200   3.799  0.00  0.00     0.064 H 
BRANCH  12  15
ATOM     15  N2  <0> d          -2.761  -2.058   3.476  0.00  0.00    -0.359 N 
ATOM     16  C5  <0> d          -2.987  -2.729   4.622  0.00  0.00     0.246 C 
ATOM     17  O1  <0> d          -2.054  -3.115   5.294  0.00  0.00    -0.271 OA
ATOM     18  H11 <0> d          -3.508  -1.750   2.939  0.00  0.00     0.162 HD
BRANCH  16  19
ATOM     19  C6  <0> d          -4.401  -3.002   5.069  0.00  0.00     0.115 C 
ATOM     20  H1  <0> d          -4.942  -3.528   4.283  0.00  0.00     0.098 H 
ATOM     21  O2  <0> d          -4.388  -3.793   6.263  0.00  0.00    -0.376 OA
ATOM     22  C9  <0> d          -4.998  -3.061   7.341  0.00  0.00     0.021 C 
ATOM     23  C8  <0> d          -5.943  -2.043   6.655  0.00  0.00    -0.042 C 
ATOM     24  H16 <0> d          -4.238  -2.540   7.922  0.00  0.00     0.074 H 
ATOM     25  H17 <0> d          -5.568  -3.735   7.980  0.00  0.00     0.074 H 
ATOM     26  C7  <0> d          -5.113  -1.672   5.396  0.00  0.00    -0.031 C 
ATOM     27  H14 <0> d          -6.107  -1.171   7.288  0.00  0.00     0.036 H 
ATOM     28  H15 <0> d          -6.889  -2.509   6.378  0.00  0.00     0.036 H 
ATOM     29  H12 <0> d          -4.388  -0.890   5.625  0.00  0.00     0.037 H 
ATOM     30  H13 <0> d          -5.764  -1.370   4.576  0.00  0.00     0.037 H 
ENDBRANCH  16  19
ENDBRANCH  12  15
ENDBRANCH   9  12
ENDBRANCH   6   9
ENDBRANCH   1   6
BRANCH   1  31
ATOM     31  C10 <0> d           0.000  -0.690  -1.200  0.00  0.00     0.704 A 
ATOM     32  N4  <0> d           0.018  -2.019  -1.176  0.00  0.00    -0.046 NA
ATOM     33  C17 <0> d           0.012  -2.731  -2.294  0.00  0.00     0.153 A 
ATOM     34  C16 <0> d          -0.004  -2.042  -3.530  0.00  0.00     0.040 A 
ATOM     35  C11 <0> d          -0.018  -0.625  -3.509  0.00  0.00     0.066 A 
ATOM     36  C15 <0> d          -0.007  -2.721  -4.755  0.00  0.00    -0.032 A 
ATOM     37  N3  <0> d          -0.015   0.003  -2.323  0.00  0.00    -0.189 N 
ATOM     38  C12 <0> d          -0.033   0.081  -4.718  0.00  0.00    -0.021 A 
ATOM     39  H28 <0> d          -0.024   0.973  -2.291  0.00  0.00     0.184 HD
ATOM     40  C13 <0> d          -0.035  -0.611  -5.909  0.00  0.00     0.103 A 
ATOM     41  H18 <0> d          -0.044   1.161  -4.716  0.00  0.00     0.091 H 
ATOM     42  C14 <0> d          -0.022  -2.012  -5.922  0.00  0.00     0.102 A 
ATOM     43  H19 <0> d           0.002  -3.801  -4.776  0.00  0.00     0.089 H 
BRANCH  33  44
ATOM     44  N5  <0> d           0.025  -4.110  -2.253  0.00  0.00    -0.383 N 
ATOM     45  H20 <0> d           0.024  -4.619  -3.079  0.00  0.00     0.157 HD
ATOM     46  H21 <0> d           0.036  -4.570  -1.400  0.00  0.00     0.157 HD
ENDBRANCH  33  44
BRANCH  40  47
ATOM     47  O4  <0> d          -0.050   0.072  -7.083  0.00  0.00    -0.353 OA
BRANCH  47  48
ATOM     48  C19 <0> d          -0.063   1.499  -7.003  0.00  0.00     0.010 C 
ATOM     49  H25 <0> d          -0.074   1.919  -8.009  0.00  0.00     0.066 H 
ATOM     50  H26 <0> d          -0.952   1.825  -6.464  0.00  0.00     0.066 H 
ATOM     51  H27 <0> d           0.828   1.842  -6.477  0.00  0.00     0.066 H 
ENDBRANCH  47  48
ENDBRANCH  40  47
BRANCH  42  52
ATOM     52  O3  <0> d          -0.025  -2.674  -7.111  0.00  0.00    -0.353 OA
BRANCH  52  53
ATOM     53  C18 <0> d          -0.012  -4.102  -7.059  0.00  0.00     0.010 C 
ATOM     54  H22 <0> d          -0.895  -4.454  -6.525  0.00  0.00     0.066 H 
ATOM     55  H23 <0> d          -0.016  -4.503  -8.072  0.00  0.00     0.066 H 
ATOM     56  H24 <0> d           0.885  -4.438  -6.539  0.00  0.00     0.066 H 
ENDBRANCH  52  53
ENDBRANCH  42  52
ENDBRANCH   1  31
TORSDOF 12
