REMARK  7 active torsions:
REMARK  status: ('A' for Active; 'I' for Inactive)
REMARK    1  A    between atoms: C6_6  and  O1_7 
REMARK    2  A    between atoms: O1_7  and  C7_8 
REMARK    3  A    between atoms: C7_8  and  C8_9 
REMARK    4  A    between atoms: C8_9  and  C9_10 
REMARK    5  A    between atoms: C9_10  and  C10_11 
REMARK    6  A    between atoms: C10_11  and  C11_12 
REMARK    7  A    between atoms: N4_16  and  C12_17 
ROOT
ATOM      1  C9  <0> d          -4.870  -0.069   0.049  0.00  0.00    -0.057 C 
ATOM      2  H8  <0> d          -4.894   0.554   0.943  0.00  0.00     0.033 H 
ATOM      3  H9  <0> d          -4.912   0.564  -0.837  0.00  0.00     0.033 H 
ENDROOT
BRANCH   1   4
ATOM      4  C8  <0> d          -3.576  -0.885   0.032  0.00  0.00    -0.044 C 
ATOM      5  H6  <0> d          -3.551  -1.509  -0.861  0.00  0.00     0.036 H 
ATOM      6  H7  <0> d          -3.534  -1.519   0.918  0.00  0.00     0.036 H 
BRANCH   4   7
ATOM      7  C7  <0> d          -2.375   0.063   0.026  0.00  0.00     0.026 C 
ATOM      8  H4  <0> d          -2.399   0.686   0.919  0.00  0.00     0.075 H 
ATOM      9  H5  <0> d          -2.417   0.696  -0.861  0.00  0.00     0.075 H 
BRANCH   7  10
ATOM     10  O1  <0> d          -1.166  -0.700   0.010  0.00  0.00    -0.351 OA
BRANCH  10  11
ATOM     11  C6  <0> d           0.002  -0.004   0.002  0.00  0.00     0.069 A 
ATOM     12  C1  <0> d          -0.017   1.383   0.010  0.00  0.00    -0.049 A 
ATOM     13  C2  <0> d           1.169   2.090   0.002  0.00  0.00    -0.054 A 
ATOM     14  H1  <0> d          -0.959   1.910   0.026  0.00  0.00     0.087 H 
ATOM     15  C3  <0> d           2.381   1.413  -0.013  0.00  0.00     0.041 A 
ATOM     16  H2  <0> d           1.155   3.170   0.008  0.00  0.00     0.087 H 
ATOM     17  N5  <0> d           3.586   2.126  -0.020  0.00  0.00    -0.327 N 
ATOM     18  C4  <0> d           2.399   0.024  -0.020  0.00  0.00    -0.028 A 
ATOM     19  C20 <0> d           4.729   1.529  -0.402  0.00  0.00     0.222 C 
ATOM     20  H27 <0> d           3.596   3.057   0.251  0.00  0.00     0.169 HD
ATOM     21  C19 <0> d           4.736   0.091  -0.845  0.00  0.00     0.013 C 
ATOM     22  O2  <0> d           5.767   2.157  -0.389  0.00  0.00    -0.273 OA
ATOM     23  C18 <0> d           3.715  -0.709  -0.035  0.00  0.00    -0.031 C 
ATOM     24  H25 <0> d           5.730  -0.331  -0.693  0.00  0.00     0.047 H 
ATOM     25  H26 <0> d           4.481   0.037  -1.904  0.00  0.00     0.047 H 
ATOM     26  H23 <0> d           4.076  -0.829   0.986  0.00  0.00     0.040 H 
ATOM     27  H24 <0> d           3.579  -1.690  -0.490  0.00  0.00     0.040 H 
ATOM     28  C5  <0> d           1.213  -0.682  -0.013  0.00  0.00    -0.043 A 
ATOM     29  H3  <0> d           1.227  -1.762  -0.019  0.00  0.00     0.088 H 
ENDBRANCH  10  11
ENDBRANCH   7  10
ENDBRANCH   4   7
ENDBRANCH   1   4
BRANCH   1  30
ATOM     30  C10 <0> d          -6.071  -1.018   0.056  0.00  0.00    -0.006 C 
ATOM     31  H10 <0> d          -6.046  -1.641  -0.838  0.00  0.00     0.044 H 
ATOM     32  H11 <0> d          -6.029  -1.651   0.942  0.00  0.00     0.044 H 
BRANCH  30  33
ATOM     33  C11 <0> d          -7.345  -0.214   0.073  0.00  0.00     0.148 A 
ATOM     34  N4  <0> d          -8.036   0.221  -0.998  0.00  0.00    -0.230 N 
ATOM     35  N3  <0> d          -9.061   0.865  -0.553  0.00  0.00    -0.044 NA
ATOM     36  N2  <0> d          -9.031   0.855   0.734  0.00  0.00    -0.023 NA
ATOM     37  N1  <0> d          -7.994   0.203   1.133  0.00  0.00    -0.114 NA
BRANCH  34  38
ATOM     38  C12 <0> d          -7.689   0.001  -2.404  0.00  0.00     0.038 C 
ATOM     39  C17 <0> d          -8.821  -0.763  -3.095  0.00  0.00    -0.044 C 
ATOM     40  C16 <0> d          -8.459  -0.993  -4.564  0.00  0.00    -0.063 C 
ATOM     41  H21 <0> d          -8.965  -1.724  -2.601  0.00  0.00     0.036 H 
ATOM     42  H22 <0> d          -9.741  -0.182  -3.034  0.00  0.00     0.036 H 
ATOM     43  C15 <0> d          -8.258   0.356  -5.256  0.00  0.00    -0.065 C 
ATOM     44  H19 <0> d          -9.266  -1.537  -5.055  0.00  0.00     0.033 H 
ATOM     45  H20 <0> d          -7.539  -1.574  -4.625  0.00  0.00     0.033 H 
ATOM     46  C14 <0> d          -7.126   1.120  -4.566  0.00  0.00    -0.063 C 
ATOM     47  H17 <0> d          -9.178   0.937  -5.195  0.00  0.00     0.033 H 
ATOM     48  H18 <0> d          -8.000   0.193  -6.303  0.00  0.00     0.033 H 
ATOM     49  C13 <0> d          -7.488   1.350  -3.097  0.00  0.00    -0.044 C 
ATOM     50  H15 <0> d          -6.982   2.081  -5.059  0.00  0.00     0.033 H 
ATOM     51  H16 <0> d          -6.206   0.539  -4.627  0.00  0.00     0.033 H 
ATOM     52  H13 <0> d          -8.408   1.931  -3.036  0.00  0.00     0.036 H 
ATOM     53  H14 <0> d          -6.681   1.894  -2.605  0.00  0.00     0.036 H 
ATOM     54  H12 <0> d          -6.769  -0.580  -2.465  0.00  0.00     0.076 H 
ENDBRANCH  34  38
ENDBRANCH  30  33
ENDBRANCH   1  30
TORSDOF 7
