REMARK  7 active torsions:
REMARK  status: ('A' for Active; 'I' for Inactive)
REMARK    1  A    between atoms: C1_1  and  C2_2 
REMARK    2  A    between atoms: C3_3  and  C16_26 
REMARK    3  A    between atoms: C5_7  and  N2_11 
REMARK       I    between atoms: N2_11  and  C7_12 
REMARK    4  A    between atoms: C7_12  and  C8_14 
REMARK    5  A    between atoms: C8_14  and  C9_16 
REMARK    6  A    between atoms: C8_14  and  N3_23 
REMARK    7  A    between atoms: C12_19  and  O3_22 
ROOT
ATOM      1  N2  <0> d          -0.590  -4.134  -1.962  0.00  0.00    -0.343 N 
ATOM      2  C7  <0> d          -0.864  -5.275  -2.624  0.00  0.00     0.256 C 
ATOM      3  O2  <0> d          -1.475  -6.165  -2.071  0.00  0.00    -0.271 OA
ATOM      4  H7  <0> d          -0.102  -3.422  -2.404  0.00  0.00     0.163 HD
ENDROOT
BRANCH   1   5
ATOM      5  C5  <0> d          -1.030  -3.969  -0.574  0.00  0.00     0.118 C 
ATOM      6  C4  <0> d          -0.200  -2.985   0.223  0.00  0.00     0.092 C 
ATOM      7  N1  <0> d          -1.279  -2.001  -0.050  0.00  0.00    -0.293 N 
ATOM      8  H1  <0> d          -0.052  -3.245   1.271  0.00  0.00     0.094 H 
ATOM      9  S1  <0> d           1.294  -2.345  -0.608  0.00  0.00    -0.136 SA
ATOM     10  C3  <0> d          -1.181  -0.600   0.005  0.00  0.00     0.118 C 
ATOM     11  C6  <0> d          -2.129  -2.958  -0.392  0.00  0.00     0.251 C 
ATOM     12  C2  <0> d           0.002  -0.004   0.002  0.00  0.00    -0.041 C 
ATOM     13  C15 <0> d           1.355  -0.640  -0.014  0.00  0.00     0.001 C 
ATOM     14  H15 <0> d           2.013  -0.058  -0.659  0.00  0.00     0.055 H 
ATOM     15  H16 <0> d           1.759  -0.640   0.998  0.00  0.00     0.055 H 
ATOM     16  O1  <0> d          -3.335  -3.003  -0.511  0.00  0.00    -0.271 OA
ATOM     17  H2  <0> d          -1.207  -4.916  -0.064  0.00  0.00     0.092 H 
BRANCH  10  18
ATOM     18  C16 <0> d          -2.406   0.213   0.067  0.00  0.00     0.227 C 
ATOM     19  O4  <0> d          -2.328   1.434   0.115  0.00  0.00    -0.643 OA
ATOM     20  O5  <0> d          -3.502  -0.330   0.070  0.00  0.00    -0.643 OA
ENDBRANCH  10  18
BRANCH  12  21
ATOM     21  C1  <0> d          -0.018   1.503   0.010  0.00  0.00    -0.051 C 
ATOM     22  H4  <0> d           1.004   1.880   0.003  0.00  0.00     0.033 H 
ATOM     23  H5  <0> d          -0.545   1.864  -0.873  0.00  0.00     0.033 H 
ATOM     24  H6  <0> d          -0.529   1.854   0.907  0.00  0.00     0.033 H 
ENDBRANCH  12  21
ENDBRANCH   1   5
BRANCH   2  25
ATOM     25  C8  <0> d          -0.412  -5.445  -4.051  0.00  0.00     0.231 C 
ATOM     26  H3  <0> d          -0.551  -4.508  -4.591  0.00  0.00     0.111 H 
BRANCH  25  27
ATOM     27  C9  <0> d           1.045  -5.827  -4.075  0.00  0.00    -0.016 A 
ATOM     28  C14 <0> d           2.006  -4.867  -4.335  0.00  0.00    -0.072 A 
ATOM     29  C13 <0> d           3.343  -5.213  -4.351  0.00  0.00    -0.050 A 
ATOM     30  H11 <0> d           1.711  -3.845  -4.522  0.00  0.00     0.084 H 
ATOM     31  C12 <0> d           3.721  -6.527  -4.117  0.00  0.00     0.065 A 
ATOM     32  H10 <0> d           4.093  -4.462  -4.550  0.00  0.00     0.087 H 
ATOM     33  C11 <0> d           2.756  -7.489  -3.861  0.00  0.00    -0.050 A 
ATOM     34  C10 <0> d           1.420  -7.137  -3.841  0.00  0.00    -0.072 A 
ATOM     35  H9  <0> d           3.047  -8.513  -3.678  0.00  0.00     0.087 H 
ATOM     36  H8  <0> d           0.667  -7.886  -3.643  0.00  0.00     0.084 H 
BRANCH  31  37
ATOM     37  O3  <0> d           5.036  -6.870  -4.137  0.00  0.00    -0.361 OA
ATOM     38  H12 <0> d           5.359  -7.141  -5.007  0.00  0.00     0.217 HD
ENDBRANCH  31  37
ENDBRANCH  25  27
BRANCH  25  39
ATOM     39  N3  <0> d          -1.205  -6.502  -4.694  0.00  0.00     0.096 N 
ATOM     40  H13 <0> d          -0.966  -6.592  -5.670  0.00  0.00     0.314 HD
ATOM     41  H14 <0> d          -1.093  -7.382  -4.212  0.00  0.00     0.314 HD
ENDBRANCH  25  39
ENDBRANCH   2  25
TORSDOF 7
