REMARK  5 active torsions:
REMARK  status: ('A' for Active; 'I' for Inactive)
REMARK    1  A    between atoms: XX_1  and  XX_2 
REMARK    2  A    between atoms: XX_2  and  XX_3 
REMARK    3  A    between atoms: XX_5  and  XX_6 
REMARK    4  A    between atoms: XX_11  and  XX_12 
REMARK    5  A    between atoms: XX_17  and  XX_18 
ROOT
ATOM      1  XX  LIG d   1      -0.339   0.191   0.126  0.00  0.00    -0.296 N 
ATOM      2  XX  LIG d   1      -1.604  -0.302   0.319  0.00  0.00     0.167 A 
ATOM      3  XX  LIG d   1      -2.110  -1.388   0.893  0.00  0.00    -0.222 NA
ATOM      4  XX  LIG d   1      -3.411  -1.589   0.920  0.00  0.00     0.237 A 
ATOM      5  XX  LIG d   1      -4.271  -0.738   0.389  0.00  0.00    -0.222 NA
ATOM      6  XX  LIG d   1      -3.858   0.376  -0.206  0.00  0.00     0.155 A 
ATOM      7  XX  LIG d   1      -2.477   0.634  -0.261  0.00  0.00     0.149 A 
ATOM      8  XX  LIG d   1      -1.714   1.631  -0.768  0.00  0.00    -0.236 NA
ATOM      9  XX  LIG d   1      -0.459   1.377  -0.537  0.00  0.00     0.214 A 
ENDROOT
BRANCH   1  10
ATOM     10  XX  LIG d   1       0.912  -0.437   0.559  0.00  0.00     0.233 C 
ATOM     11  XX  LIG d   1       1.940   0.560   0.689  0.00  0.00    -0.356 OA
ATOM     12  XX  LIG d   1       3.184  -0.067   0.310  0.00  0.00     0.176 C 
ATOM     13  XX  LIG d   1       2.793  -0.943  -0.907  0.00  0.00     0.153 C 
ATOM     14  XX  LIG d   1       1.386  -1.447  -0.503  0.00  0.00     0.088 C 
BRANCH  12  15
ATOM     15  XX  LIG d   1       4.217   0.988  -0.094  0.00  0.00     0.198 C 
BRANCH  15  16
ATOM     16  XX  LIG d   1       4.569   1.772   1.047  0.00  0.00    -0.398 OA
ATOM     17  XX  LIG d   1       5.221   2.462   0.863  0.00  0.00     0.209 HD
ENDBRANCH  15  16
ENDBRANCH  12  15
BRANCH  13  18
ATOM     18  XX  LIG d   1       3.701  -2.035  -1.062  0.00  0.00    -0.393 OA
ATOM     19  XX  LIG d   1       3.497  -2.612  -1.811  0.00  0.00     0.210 HD
ENDBRANCH  13  18
ENDBRANCH   1  10
BRANCH   6  20
ATOM     20  XX  LIG d   1      -4.766   1.261  -0.761  0.00  0.00    -0.382 N 
ATOM     21  XX  LIG d   1      -5.716   1.071  -0.717  0.00  0.00     0.157 HD
ATOM     22  XX  LIG d   1      -4.452   2.070  -1.193  0.00  0.00     0.157 HD
ENDBRANCH   6  20
TORSDOF 5
