REMARK  8 active torsions:
REMARK  status: ('A' for Active; 'I' for Inactive)
REMARK    1  A    between atoms: C1_3  and  N1_4 
REMARK    2  A    between atoms: C10_5  and  C12_7 
REMARK    3  A    between atoms: C10_5  and  N2_16 
REMARK    4  A    between atoms: C11_6  and  C4_31 
REMARK    5  A    between atoms: C12_7  and  C13_8 
REMARK    6  A    between atoms: C13_8  and  C15_10 
REMARK    7  A    between atoms: C13_8  and  N5_34 
REMARK       I    between atoms: C16_11  and  N5_34 
REMARK    8  A    between atoms: C16_11  and  C17_12 
ROOT
HETATM    1  C10 MRV A1101     149.026 107.466  23.041  1.00 48.17     0.276 C 
ENDROOT
BRANCH   1   2
HETATM    2  C12 MRV A1101     149.033 108.961  22.722  1.00 48.04     0.060 C 
BRANCH   2   3
HETATM    3  C13 MRV A1101     147.813 109.616  23.350  1.00 50.92     0.119 C 
BRANCH   3   4
HETATM    4  C15 MRV A1101     148.041 109.947  24.690  1.00 51.10    -0.035 A 
HETATM    5  C25 MRV A1101     147.238 109.341  25.655  1.00 51.21     0.009 A 
HETATM    6  C27 MRV A1101     147.453 109.606  27.006  1.00 53.33     0.001 A 
HETATM    7  C29 MRV A1101     148.501 110.445  27.391  1.00 53.01     0.000 A 
HETATM    8  C28 MRV A1101     149.327 111.030  26.431  1.00 52.18     0.001 A 
HETATM    9  C26 MRV A1101     149.101 110.781  25.080  1.00 51.24     0.009 A 
ENDBRANCH   3   4
BRANCH   3  10
HETATM   10  N5  MRV A1101     147.418 110.754  22.504  1.00 56.04    -0.352 N 
HETATM   11  C16 MRV A1101     146.522 110.612  21.495  1.00 58.17     0.222 C 
HETATM   12  O1  MRV A1101     145.979 109.547  21.179  1.00 61.21    -0.273 OA
ATOM     13  H5  MRV A1101     147.828 111.671  22.681  1.00  0.00     0.163 HD
BRANCH  11  14
HETATM   14  C17 MRV A1101     146.304 111.869  20.664  1.00 55.30     0.078 C 
HETATM   15  C22 MRV A1101     144.787 112.238  20.596  1.00 57.05     0.020 C 
HETATM   16  C24 MRV A1101     144.547 113.414  19.608  1.00 57.27     0.080 C 
HETATM   17  C18 MRV A1101     145.214 113.128  18.214  1.00 54.81     0.243 C 
HETATM   18  F1  MRV A1101     144.604 112.055  17.610  1.00 55.36    -0.206 F 
HETATM   19  F2  MRV A1101     145.080 114.190  17.366  1.00 54.53    -0.206 F 
HETATM   20  C23 MRV A1101     146.711 112.836  18.393  1.00 51.60     0.080 C 
HETATM   21  C21 MRV A1101     146.898 111.600  19.267  1.00 51.22     0.020 C 
ENDBRANCH  11  14
ENDBRANCH   3  10
ENDBRANCH   2   3
ENDBRANCH   1   2
BRANCH   1  22
HETATM   22  N2  MRV A1101     150.377 106.864  22.918  1.00 48.90     0.098 N 
HETATM   23  C2  MRV A1101     150.768 106.680  21.499  1.00 46.73     0.228 C 
HETATM   24  C8  MRV A1101     149.956 105.445  21.055  1.00 49.50     0.038 C 
HETATM   25  C5  MRV A1101     152.289 106.451  21.419  1.00 44.10     0.089 C 
HETATM   26  C9  MRV A1101     149.695 104.654  22.357  1.00 51.29     0.038 C 
HETATM   27  C3  MRV A1101     150.426 105.465  23.437  1.00 50.66     0.228 C 
HETATM   28  C6  MRV A1101     151.896 104.980  23.550  1.00 50.30     0.089 C 
HETATM   29  C1  MRV A1101     152.669 105.187  22.209  1.00 50.43     0.001 C 
BRANCH  29  30
HETATM   30  N1  MRV A1101     154.162 104.885  22.194  1.00 58.80    -0.296 N 
HETATM   31  C7  MRV A1101     154.766 104.023  21.374  1.00 59.22     0.099 A 
HETATM   32  C14 MRV A1101     154.073 103.152  20.311  1.00 56.16     0.091 C 
HETATM   33  N4  MRV A1101     156.086 104.042  21.597  1.00 60.34    -0.287 N 
HETATM   34  N3  MRV A1101     156.334 104.849  22.474  1.00 59.02    -0.287 N 
ATOM     35  H4  MRV A1101     156.775 103.470  21.109  1.00  0.00     0.188 HD
HETATM   36  C4  MRV A1101     155.194 105.432  22.861  1.00 58.84     0.107 A 
ATOM     37  H3  MRV A1101     157.260 105.048  22.852  1.00  0.00     0.188 HD
BRANCH  36  38
HETATM   38  C11 MRV A1101     155.071 106.457  24.015  1.00 54.70     0.047 C 
HETATM   39  C19 MRV A1101     156.046 107.632  23.863  1.00 53.08     0.017 C 
HETATM   40  C20 MRV A1101     155.216 105.716  25.352  1.00 52.46     0.017 C 
ENDBRANCH  36  38
ENDBRANCH  29  30
ENDBRANCH   1  22
TORSDOF 8
