REMARK  12 active torsions:
REMARK  status: ('A' for Active; 'I' for Inactive)
REMARK    1  A    between atoms: PG_1  and  O3B_5 
REMARK    2  A    between atoms: O3B_5  and  PB_6 
REMARK    3  A    between atoms: PB_6  and  O3A_9 
REMARK    4  A    between atoms: O3A_9  and  PA_10 
REMARK    5  A    between atoms: PA_10  and  O5'_13 
REMARK    6  A    between atoms: O5'_13  and  C5'_14 
REMARK    7  A    between atoms: C5'_14  and  C4'_17 
REMARK    8  A    between atoms: C3'_20  and  O3'_22 
REMARK    9  A    between atoms: C2'_24  and  O2'_26 
REMARK   10  A    between atoms: C1'_28  and  N9_30 
REMARK   11  A    between atoms: N7_33  and  CM7_34 
REMARK   12  A    between atoms: C2_43  and  N2_44 
ROOT
HETATM    1  C4' MGT A1483      44.860  25.368 -28.297  1.00 34.92     0.089 C 
ATOM      2  H4' MGT A1483      44.766  26.248 -27.619  1.00  0.00     0.090 H 
HETATM    3  O4' MGT A1483      44.641  24.152 -27.533  1.00 33.27    -0.353 OA
HETATM    4  C3' MGT A1483      46.295  25.288 -28.821  1.00 34.19     0.091 C 
ATOM      5  H3' MGT A1483      46.373  25.639 -29.876  1.00  0.00     0.091 H 
HETATM    6  C2' MGT A1483      46.671  23.831 -28.682  1.00 33.94     0.105 C 
ATOM      7  H2' MGT A1483      46.344  23.217 -29.553  1.00  0.00     0.093 H 
HETATM    8  C1' MGT A1483      45.936  23.471 -27.403  1.00 30.89     0.139 C 
ATOM      9  H1' MGT A1483      46.487  23.897 -26.533  1.00  0.00     0.122 H 
ENDROOT
BRANCH   8  10
HETATM   10  N9  MGT A1483      45.522  22.046 -27.080  1.00 29.66    -0.296 N 
HETATM   11  C8  MGT A1483      44.505  21.434 -27.715  1.00 27.88     0.049 A 
HETATM   12  N7  MGT A1483      44.411  20.228 -27.155  1.00 27.01    -0.340 N 
ATOM     13  H8  MGT A1483      43.881  21.844 -28.527  1.00  0.00     0.141 H 
HETATM   14  C5  MGT A1483      45.336  20.071 -26.191  1.00 27.24     0.149 A 
HETATM   15  C6  MGT A1483      45.678  19.057 -25.295  1.00 26.68     0.290 A 
HETATM   16  C4  MGT A1483      46.053  21.249 -26.149  1.00 27.82     0.159 A 
HETATM   17  N1  MGT A1483      46.712  19.246 -24.380  1.00 27.51    -0.154 N 
HETATM   18  O6  MGT A1483      45.070  17.997 -25.311  1.00 27.25    -0.265 OA
HETATM   19  C2  MGT A1483      47.423  20.471 -24.405  1.00 28.78     0.680 A 
ATOM     20  H1  MGT A1483      46.952  18.518 -23.707  1.00  0.00     0.187 HD
HETATM   21  N3  MGT A1483      47.061  21.426 -25.271  1.00 27.51    -0.174 N 
ATOM     22  H3  MGT A1483      47.563  22.314 -25.266  1.00  0.00     0.186 HD
BRANCH  12  23
HETATM   23  CM7 MGT A1483      43.375  19.249 -27.561  1.00 25.30    -0.013 C 
ATOM     24 3HM7 MGT A1483      43.919  18.306 -27.805  1.00  0.00     0.057 H 
ATOM     25 2HM7 MGT A1483      42.814  18.990 -26.633  1.00  0.00     0.057 H 
ATOM     26 1HM7 MGT A1483      42.608  19.379 -28.360  1.00  0.00     0.057 H 
ENDBRANCH  12  23
BRANCH  19  27
HETATM   27  N2  MGT A1483      48.443  20.701 -23.575  1.00 29.71    -0.234 N 
ATOM     28  H22 MGT A1483      48.955  21.583 -23.593  1.00  0.00     0.174 HD
ATOM     29  H21 MGT A1483      48.719  19.974 -22.915  1.00  0.00     0.174 HD
ENDBRANCH  19  27
ENDBRANCH   8  10
BRANCH   6  30
HETATM   30  O2' MGT A1483      48.079  23.737 -28.438  1.00 37.14    -0.388 OA
ATOM     31  H2' MGT A1483      48.539  23.962 -29.238  1.00  0.00     0.210 HD
ENDBRANCH   6  30
BRANCH   4  32
HETATM   32  O3' MGT A1483      47.120  26.048 -27.945  1.00 35.75    -0.390 OA
ATOM     33  H3' MGT A1483      46.884  26.964 -28.032  1.00  0.00     0.210 HD
ENDBRANCH   4  32
BRANCH   1  34
HETATM   34  C5' MGT A1483      43.771  25.451 -29.389  1.00 38.57     0.058 C 
ATOM     35 2H5' MGT A1483      43.958  26.310 -30.075  1.00  0.00     0.079 H 
ATOM     36 1H5' MGT A1483      42.795  25.774 -28.957  1.00  0.00     0.079 H 
BRANCH  34  37
HETATM   37  O5' MGT A1483      43.626  24.206 -30.136  1.00 42.80    -0.287 OA
BRANCH  37  38
HETATM   38  PA  MGT A1483      43.722  24.280 -31.756  1.00 44.78     0.417 P 
HETATM   39  O1A MGT A1483      43.564  22.796 -32.345  1.00 45.17    -0.624 OA
HETATM   40  O2A MGT A1483      42.713  25.256 -32.229  1.00 46.58    -0.624 OA
BRANCH  38  41
HETATM   41  O3A MGT A1483      45.229  24.838 -32.232  1.00 49.00    -0.180 OA
BRANCH  41  42
HETATM   42  PB  MGT A1483      46.500  23.966 -32.785  1.00 50.34     0.428 P 
HETATM   43  O1B MGT A1483      46.307  23.569 -34.337  1.00 50.62    -0.624 OA
HETATM   44  O2B MGT A1483      47.806  24.652 -32.528  1.00 51.47    -0.624 OA
BRANCH  42  45
HETATM   45  O3B MGT A1483      46.392  22.571 -31.946  1.00 49.90    -0.173 OA
BRANCH  45  46
HETATM   46  PG  MGT A1483      47.642  21.644 -31.468  1.00 49.83     0.431 P 
HETATM   47  O1G MGT A1483      48.431  21.314 -32.822  1.00 51.34    -0.616 OA
HETATM   48  O2G MGT A1483      46.906  20.295 -30.960  1.00 45.91    -0.616 OA
HETATM   49  O3G MGT A1483      48.607  22.186 -30.469  1.00 50.23    -0.616 OA
ENDBRANCH  45  46
ENDBRANCH  42  45
ENDBRANCH  41  42
ENDBRANCH  38  41
ENDBRANCH  37  38
ENDBRANCH  34  37
ENDBRANCH   1  34
TORSDOF 12
